data_CAN-12

_cell_length_a  20.30490000
_cell_length_b  20.30490000
_cell_length_c  49.64100000
_cell_angle_alpha  90.00000000
_cell_angle_beta  90.00000000
_cell_angle_gamma  90.00000000


_symmetry_space_group_name_Hall ' P 1'
_symmetry_space_group_name_H-M  'P 1'
_symmetry_Int_Tables_number     1

loop_
_atom_site_label
_atom_site_type_symbol
_atom_site_fract_x
_atom_site_fract_y
_atom_site_fract_z
_atom_site_charge
Cd       Cd   0.20318800  0.20318800  0.37500000  0.00000000
Cd       Cd   0.20318800  0.79681200  0.12500000  0.00000000
Cd       Cd   0.79681200  0.79681200  0.87500000  0.00000000
Cd       Cd   0.79681200  0.20318800  0.62500000  0.00000000
Cd       Cd   0.12950000  0.30891000  0.26810400  0.00000000
Cd       Cd   0.69109000  0.87050000  0.98189600  0.00000000
Cd       Cd   0.30891000  0.87050000  0.01810400  0.00000000
Cd       Cd   0.30891000  0.12950000  0.48189600  0.00000000
Cd       Cd   0.69109000  0.12950000  0.51810400  0.00000000
Cd       Cd   0.12950000  0.69109000  0.23189600  0.00000000
Cd       Cd   0.87050000  0.69109000  0.76810400  0.00000000
Cd       Cd   0.87050000  0.30891000  0.73189600  0.00000000
Cl       Cl   0.03580000  0.51945000  0.45963000  0.00000000
Cl       Cl   0.48055000  0.96420000  0.79037000  0.00000000
Cl       Cl   0.51945000  0.96420000  0.20963000  0.00000000
Cl       Cl   0.51945000  0.03580000  0.29037000  0.00000000
Cl       Cl   0.48055000  0.03580000  0.70963000  0.00000000
Cl       Cl   0.03580000  0.48055000  0.04037000  0.00000000
Cl       Cl   0.96420000  0.48055000  0.95963000  0.00000000
Cl       Cl   0.96420000  0.51945000  0.54037000  0.00000000
Cl       Cl   0.99512000  0.87778000  0.30038000  0.00000000
Cl       Cl   0.12222000  0.00488000  0.94962000  0.00000000
Cl       Cl   0.87778000  0.00488000  0.05038000  0.00000000
Cl       Cl   0.87778000  0.99512000  0.44962000  0.00000000
Cl       Cl   0.12222000  0.99512000  0.55038000  0.00000000
Cl       Cl   0.99512000  0.12222000  0.19962000  0.00000000
Cl       Cl   0.00488000  0.12222000  0.80038000  0.00000000
Cl       Cl   0.00488000  0.87778000  0.69962000  0.00000000
Cl       Cl   0.95420000  0.28380000  0.11484000  0.00000000
Cl       Cl   0.71620000  0.04580000  0.13516000  0.00000000
Cl       Cl   0.28380000  0.04580000  0.86484000  0.00000000
Cl       Cl   0.28380000  0.95420000  0.63516000  0.00000000
Cl       Cl   0.71620000  0.95420000  0.36484000  0.00000000
Cl       Cl   0.95420000  0.71620000  0.38516000  0.00000000
Cl       Cl   0.04580000  0.71620000  0.61484000  0.00000000
Cl       Cl   0.04580000  0.28380000  0.88516000  0.00000000
Cl       Cl   0.09081000  0.72096000  0.02341000  0.00000000
Cl       Cl   0.27904000  0.90919000  0.22659000  0.00000000
Cl       Cl   0.72096000  0.90919000  0.77341000  0.00000000
Cl       Cl   0.72096000  0.09081000  0.72659000  0.00000000
Cl       Cl   0.27904000  0.09081000  0.27341000  0.00000000
Cl       Cl   0.09081000  0.27904000  0.47659000  0.00000000
Cl       Cl   0.90919000  0.27904000  0.52341000  0.00000000
Cl       Cl   0.90919000  0.72096000  0.97659000  0.00000000
O        O    0.25040000  0.66650000  0.33623000  0.00000000
O        O    0.33350000  0.74960000  0.91377000  0.00000000
O        O    0.66650000  0.74960000  0.08623000  0.00000000
O        O    0.66650000  0.25040000  0.41377000  0.00000000
O        O    0.33350000  0.25040000  0.58623000  0.00000000
O        O    0.25040000  0.33350000  0.16377000  0.00000000
O        O    0.74960000  0.33350000  0.83623000  0.00000000
O        O    0.74960000  0.66650000  0.66377000  0.00000000
H        H    0.24450000  0.70700000  0.33860000  0.00000000
H        H    0.29300000  0.75550000  0.91140000  0.00000000
H        H    0.70700000  0.75550000  0.08860000  0.00000000
H        H    0.70700000  0.24450000  0.41140000  0.00000000
H        H    0.29300000  0.24450000  0.58860000  0.00000000
H        H    0.24450000  0.29300000  0.16140000  0.00000000
H        H    0.75550000  0.29300000  0.83860000  0.00000000
H        H    0.75550000  0.70700000  0.66140000  0.00000000
O        O    0.25670000  0.74330000  0.40940000  0.00000000
O        O    0.25670000  0.74330000  0.84060000  0.00000000
O        O    0.74330000  0.74330000  0.15940000  0.00000000
O        O    0.74330000  0.25670000  0.34060000  0.00000000
O        O    0.25670000  0.25670000  0.65940000  0.00000000
O        O    0.25670000  0.25670000  0.09060000  0.00000000
O        O    0.74330000  0.25670000  0.90940000  0.00000000
O        O    0.74330000  0.74330000  0.59060000  0.00000000
H        H    0.25120000  0.70260000  0.40730000  0.00000000
H        H    0.29740000  0.74880000  0.84270000  0.00000000
H        H    0.70260000  0.74880000  0.15730000  0.00000000
H        H    0.70260000  0.25120000  0.34270000  0.00000000
H        H    0.29740000  0.25120000  0.65730000  0.00000000
H        H    0.25120000  0.29740000  0.09270000  0.00000000
H        H    0.74880000  0.29740000  0.90730000  0.00000000
H        H    0.74880000  0.70260000  0.59270000  0.00000000
O        O    0.96380000  0.66670000  0.15947000  0.00000000
O        O    0.33330000  0.03620000  0.09053000  0.00000000
O        O    0.66670000  0.03620000  0.90947000  0.00000000
O        O    0.66670000  0.96380000  0.59053000  0.00000000
O        O    0.33330000  0.96380000  0.40947000  0.00000000
O        O    0.96380000  0.33330000  0.34053000  0.00000000
O        O    0.03620000  0.33330000  0.65947000  0.00000000
O        O    0.03620000  0.66670000  0.84053000  0.00000000
H        H    0.98190000  0.67630000  0.17420000  0.00000000
H        H    0.32370000  0.01810000  0.07580000  0.00000000
H        H    0.67630000  0.01810000  0.92420000  0.00000000
H        H    0.67630000  0.98190000  0.57580000  0.00000000
H        H    0.32370000  0.98190000  0.42420000  0.00000000
H        H    0.98190000  0.32370000  0.32580000  0.00000000
H        H    0.01810000  0.32370000  0.67420000  0.00000000
H        H    0.01810000  0.67630000  0.82580000  0.00000000
O        O    0.81100000  0.60440000  0.12897000  0.00000000
O        O    0.39560000  0.18900000  0.12103000  0.00000000
O        O    0.60440000  0.18900000  0.87897000  0.00000000
O        O    0.60440000  0.81100000  0.62103000  0.00000000
O        O    0.39560000  0.81100000  0.37897000  0.00000000
O        O    0.81100000  0.39560000  0.37103000  0.00000000
O        O    0.18900000  0.39560000  0.62897000  0.00000000
O        O    0.18900000  0.60440000  0.87103000  0.00000000
H        H    0.83400000  0.58430000  0.14040000  0.00000000
H        H    0.41570000  0.16600000  0.10960000  0.00000000
H        H    0.58430000  0.16600000  0.89040000  0.00000000
H        H    0.58430000  0.83400000  0.60960000  0.00000000
H        H    0.41570000  0.83400000  0.39040000  0.00000000
H        H    0.83400000  0.41570000  0.35960000  0.00000000
H        H    0.16600000  0.41570000  0.64040000  0.00000000
H        H    0.16600000  0.58430000  0.85960000  0.00000000
O        O    0.21810000  0.47440000  0.29591000  0.00000000
O        O    0.52560000  0.78190000  0.95409000  0.00000000
O        O    0.47440000  0.78190000  0.04591000  0.00000000
O        O    0.47440000  0.21810000  0.45409000  0.00000000
O        O    0.52560000  0.21810000  0.54591000  0.00000000
O        O    0.21810000  0.52560000  0.20409000  0.00000000
O        O    0.78190000  0.52560000  0.79591000  0.00000000
O        O    0.78190000  0.47440000  0.70409000  0.00000000
O        O    0.14120000  0.40110000  0.29519000  0.00000000
O        O    0.59890000  0.85880000  0.95481000  0.00000000
O        O    0.40110000  0.85880000  0.04519000  0.00000000
O        O    0.40110000  0.14120000  0.45481000  0.00000000
O        O    0.59890000  0.14120000  0.54519000  0.00000000
O        O    0.14120000  0.59890000  0.20481000  0.00000000
O        O    0.85880000  0.59890000  0.79519000  0.00000000
O        O    0.85880000  0.40110000  0.70481000  0.00000000
O        O    0.22010000  0.39590000  0.26635000  0.00000000
O        O    0.60410000  0.77990000  0.98365000  0.00000000
O        O    0.39590000  0.77990000  0.01635000  0.00000000
O        O    0.39590000  0.22010000  0.48365000  0.00000000
O        O    0.60410000  0.22010000  0.51635000  0.00000000
O        O    0.22010000  0.60410000  0.23365000  0.00000000
O        O    0.77990000  0.60410000  0.76635000  0.00000000
O        O    0.77990000  0.39590000  0.73365000  0.00000000
O        O    0.24570000  0.27260000  0.30061000  0.00000000
O        O    0.72740000  0.75430000  0.94939000  0.00000000
O        O    0.27260000  0.75430000  0.05061000  0.00000000
O        O    0.27260000  0.24570000  0.44939000  0.00000000
O        O    0.72740000  0.24570000  0.55061000  0.00000000
O        O    0.24570000  0.72740000  0.19939000  0.00000000
O        O    0.75430000  0.72740000  0.80061000  0.00000000
O        O    0.75430000  0.27260000  0.69939000  0.00000000
O        O    0.14980000  0.23590000  0.30250000  0.00000000
O        O    0.76410000  0.85020000  0.94750000  0.00000000
O        O    0.23590000  0.85020000  0.05250000  0.00000000
O        O    0.23590000  0.14980000  0.44750000  0.00000000
O        O    0.76410000  0.14980000  0.55250000  0.00000000
O        O    0.14980000  0.76410000  0.19750000  0.00000000
O        O    0.85020000  0.76410000  0.80250000  0.00000000
O        O    0.85020000  0.23590000  0.69750000  0.00000000
O        O    0.22470000  0.19530000  0.32847000  0.00000000
O        O    0.80470000  0.77530000  0.92153000  0.00000000
O        O    0.19530000  0.77530000  0.07847000  0.00000000
O        O    0.19530000  0.22470000  0.42153000  0.00000000
O        O    0.80470000  0.22470000  0.57847000  0.00000000
O        O    0.22470000  0.80470000  0.17153000  0.00000000
O        O    0.77530000  0.80470000  0.82847000  0.00000000
O        O    0.77530000  0.19530000  0.67153000  0.00000000
O        O    0.95200000  0.22470000  0.28747000  0.00000000
O        O    0.77530000  0.04800000  0.96253000  0.00000000
O        O    0.22470000  0.04800000  0.03747000  0.00000000
O        O    0.22470000  0.95200000  0.46253000  0.00000000
O        O    0.77530000  0.95200000  0.53747000  0.00000000
O        O    0.95200000  0.77530000  0.21253000  0.00000000
O        O    0.04800000  0.77530000  0.78747000  0.00000000
O        O    0.04800000  0.22470000  0.71253000  0.00000000
O        O    0.03690000  0.23020000  0.26090000  0.00000000
O        O    0.76980000  0.96310000  0.98910000  0.00000000
O        O    0.23020000  0.96310000  0.01090000  0.00000000
O        O    0.23020000  0.03690000  0.48910000  0.00000000
O        O    0.76980000  0.03690000  0.51090000  0.00000000
O        O    0.03690000  0.76980000  0.23910000  0.00000000
O        O    0.96310000  0.76980000  0.76090000  0.00000000
O        O    0.96310000  0.23020000  0.73910000  0.00000000
O        O    0.02510000  0.30290000  0.29218000  0.00000000
O        O    0.69710000  0.97490000  0.95782000  0.00000000
O        O    0.30290000  0.97490000  0.04218000  0.00000000
O        O    0.30290000  0.02510000  0.45782000  0.00000000
O        O    0.69710000  0.02510000  0.54218000  0.00000000
O        O    0.02510000  0.69710000  0.20782000  0.00000000
O        O    0.97490000  0.69710000  0.79218000  0.00000000
O        O    0.97490000  0.30290000  0.70782000  0.00000000
N        N    0.20110000  0.31683000  0.37319000  0.00000000
N        N    0.68317000  0.79890000  0.87681000  0.00000000
N        N    0.31683000  0.79890000  0.12319000  0.00000000
N        N    0.31683000  0.20110000  0.37681000  0.00000000
N        N    0.68317000  0.20110000  0.62319000  0.00000000
N        N    0.20110000  0.68317000  0.12681000  0.00000000
N        N    0.79890000  0.68317000  0.87319000  0.00000000
N        N    0.79890000  0.31683000  0.62681000  0.00000000
N        N    0.19710000  0.08930000  0.37664000  0.00000000
N        N    0.91070000  0.80290000  0.87336000  0.00000000
N        N    0.08930000  0.80290000  0.12664000  0.00000000
N        N    0.08930000  0.19710000  0.37336000  0.00000000
N        N    0.91070000  0.19710000  0.62664000  0.00000000
N        N    0.19710000  0.91070000  0.12336000  0.00000000
N        N    0.80290000  0.91070000  0.87664000  0.00000000
N        N    0.80290000  0.08930000  0.62336000  0.00000000
N        N    0.08100000  0.37420000  0.23497000  0.00000000
N        N    0.62580000  0.91900000  0.01503000  0.00000000
N        N    0.37420000  0.91900000  0.98497000  0.00000000
N        N    0.37420000  0.08100000  0.51503000  0.00000000
N        N    0.62580000  0.08100000  0.48497000  0.00000000
N        N    0.08100000  0.62580000  0.26503000  0.00000000
N        N    0.91900000  0.62580000  0.73497000  0.00000000
N        N    0.91900000  0.37420000  0.76503000  0.00000000
N        N    0.75350000  0.80730000  0.01020000  0.00000000
N        N    0.19270000  0.24650000  0.23980000  0.00000000
N        N    0.80730000  0.24650000  0.76020000  0.00000000
N        N    0.80730000  0.75350000  0.73980000  0.00000000
N        N    0.19270000  0.75350000  0.26020000  0.00000000
N        N    0.75350000  0.19270000  0.48980000  0.00000000
N        N    0.24650000  0.19270000  0.51020000  0.00000000
N        N    0.24650000  0.80730000  0.98980000  0.00000000
N        N    0.19240000  0.42470000  0.28580000  0.00000000
N        N    0.57530000  0.80760000  0.96420000  0.00000000
N        N    0.42470000  0.80760000  0.03580000  0.00000000
N        N    0.42470000  0.19240000  0.46420000  0.00000000
N        N    0.57530000  0.19240000  0.53580000  0.00000000
N        N    0.19240000  0.57530000  0.21420000  0.00000000
N        N    0.80760000  0.57530000  0.78580000  0.00000000
N        N    0.80760000  0.42470000  0.71420000  0.00000000
N        N    0.20530000  0.23220000  0.30985000  0.00000000
N        N    0.76780000  0.79470000  0.94015000  0.00000000
N        N    0.23220000  0.79470000  0.05985000  0.00000000
N        N    0.23220000  0.20530000  0.44015000  0.00000000
N        N    0.76780000  0.20530000  0.55985000  0.00000000
N        N    0.20530000  0.76780000  0.19015000  0.00000000
N        N    0.79470000  0.76780000  0.80985000  0.00000000
N        N    0.79470000  0.23220000  0.69015000  0.00000000
N        N    0.00390000  0.25140000  0.28031000  0.00000000
N        N    0.74860000  0.99610000  0.96969000  0.00000000
N        N    0.25140000  0.99610000  0.03031000  0.00000000
N        N    0.25140000  0.00390000  0.46969000  0.00000000
N        N    0.74860000  0.00390000  0.53031000  0.00000000
N        N    0.00390000  0.74860000  0.21969000  0.00000000
N        N    0.99610000  0.74860000  0.78031000  0.00000000
N        N    0.99610000  0.25140000  0.71969000  0.00000000
C        C    0.23590000  0.35220000  0.39162000  0.00000000
C        C    0.64780000  0.76410000  0.85838000  0.00000000
C        C    0.35220000  0.76410000  0.14162000  0.00000000
C        C    0.35220000  0.23590000  0.35838000  0.00000000
C        C    0.64780000  0.23590000  0.64162000  0.00000000
C        C    0.23590000  0.64780000  0.10838000  0.00000000
C        C    0.76410000  0.64780000  0.89162000  0.00000000
C        C    0.76410000  0.35220000  0.60838000  0.00000000
H        H    0.26360000  0.32930000  0.40390000  0.00000000
H        H    0.67070000  0.73640000  0.84610000  0.00000000
H        H    0.32930000  0.73640000  0.15390000  0.00000000
H        H    0.32930000  0.26360000  0.34610000  0.00000000
H        H    0.67070000  0.26360000  0.65390000  0.00000000
H        H    0.26360000  0.67070000  0.09610000  0.00000000
H        H    0.73640000  0.67070000  0.90390000  0.00000000
H        H    0.73640000  0.32930000  0.59610000  0.00000000
C        C    0.23250000  0.42010000  0.39326000  0.00000000
C        C    0.57990000  0.76750000  0.85674000  0.00000000
C        C    0.42010000  0.76750000  0.14326000  0.00000000
C        C    0.42010000  0.23250000  0.35674000  0.00000000
C        C    0.57990000  0.23250000  0.64326000  0.00000000
C        C    0.23250000  0.57990000  0.10674000  0.00000000
C        C    0.76750000  0.57990000  0.89326000  0.00000000
C        C    0.76750000  0.42010000  0.60674000  0.00000000
H        H    0.25730000  0.44280000  0.40650000  0.00000000
H        H    0.55720000  0.74270000  0.84350000  0.00000000
H        H    0.44280000  0.74270000  0.15650000  0.00000000
H        H    0.44280000  0.25730000  0.34350000  0.00000000
H        H    0.55720000  0.25730000  0.65650000  0.00000000
H        H    0.25730000  0.55720000  0.09350000  0.00000000
H        H    0.74270000  0.55720000  0.90650000  0.00000000
H        H    0.74270000  0.44280000  0.59350000  0.00000000
C        C    0.19300000  0.45500000  0.37554000  0.00000000
C        C    0.54500000  0.80700000  0.87446000  0.00000000
C        C    0.45500000  0.80700000  0.12554000  0.00000000
C        C    0.45500000  0.19300000  0.37446000  0.00000000
C        C    0.54500000  0.19300000  0.62554000  0.00000000
C        C    0.19300000  0.54500000  0.12446000  0.00000000
C        C    0.80700000  0.54500000  0.87554000  0.00000000
C        C    0.80700000  0.45500000  0.62446000  0.00000000
C        C    0.15560000  0.41900000  0.35781000  0.00000000
C        C    0.58100000  0.84440000  0.89219000  0.00000000
C        C    0.41900000  0.84440000  0.10781000  0.00000000
C        C    0.41900000  0.15560000  0.39219000  0.00000000
C        C    0.58100000  0.15560000  0.60781000  0.00000000
C        C    0.15560000  0.58100000  0.14219000  0.00000000
C        C    0.84440000  0.58100000  0.85781000  0.00000000
C        C    0.84440000  0.41900000  0.64219000  0.00000000
H        H    0.12630000  0.44090000  0.34590000  0.00000000
H        H    0.55910000  0.87370000  0.90410000  0.00000000
H        H    0.44090000  0.87370000  0.09590000  0.00000000
H        H    0.44090000  0.12630000  0.40410000  0.00000000
H        H    0.55910000  0.12630000  0.59590000  0.00000000
H        H    0.12630000  0.55910000  0.15410000  0.00000000
H        H    0.87370000  0.55910000  0.84590000  0.00000000
H        H    0.87370000  0.44090000  0.65410000  0.00000000
C        C    0.16030000  0.35000000  0.35719000  0.00000000
C        C    0.65000000  0.83970000  0.89281000  0.00000000
C        C    0.35000000  0.83970000  0.10719000  0.00000000
C        C    0.35000000  0.16030000  0.39281000  0.00000000
C        C    0.65000000  0.16030000  0.60719000  0.00000000
C        C    0.16030000  0.65000000  0.14281000  0.00000000
C        C    0.83970000  0.65000000  0.85719000  0.00000000
C        C    0.83970000  0.35000000  0.64281000  0.00000000
H        H    0.13340000  0.32610000  0.34490000  0.00000000
H        H    0.67390000  0.86660000  0.90510000  0.00000000
H        H    0.32610000  0.86660000  0.09490000  0.00000000
H        H    0.32610000  0.13340000  0.40510000  0.00000000
H        H    0.67390000  0.13340000  0.59490000  0.00000000
H        H    0.13340000  0.67390000  0.15510000  0.00000000
H        H    0.86660000  0.67390000  0.84490000  0.00000000
H        H    0.86660000  0.32610000  0.65510000  0.00000000
C        C    0.18930000  0.52750000  0.37659000  0.00000000
C        C    0.47250000  0.81070000  0.87341000  0.00000000
C        C    0.52750000  0.81070000  0.12659000  0.00000000
C        C    0.52750000  0.18930000  0.37341000  0.00000000
C        C    0.47250000  0.18930000  0.62659000  0.00000000
C        C    0.18930000  0.47250000  0.12341000  0.00000000
C        C    0.81070000  0.47250000  0.87659000  0.00000000
C        C    0.81070000  0.52750000  0.62341000  0.00000000
C        C    0.22130000  0.56260000  0.35659000  0.00000000
C        C    0.43740000  0.77870000  0.89341000  0.00000000
C        C    0.56260000  0.77870000  0.10659000  0.00000000
C        C    0.56260000  0.22130000  0.39341000  0.00000000
C        C    0.43740000  0.22130000  0.60659000  0.00000000
C        C    0.22130000  0.43740000  0.14341000  0.00000000
C        C    0.77870000  0.43740000  0.85659000  0.00000000
C        C    0.77870000  0.56260000  0.64341000  0.00000000
H        H    0.24530000  0.53940000  0.34320000  0.00000000
H        H    0.46060000  0.75470000  0.90680000  0.00000000
H        H    0.53940000  0.75470000  0.09320000  0.00000000
H        H    0.53940000  0.24530000  0.40680000  0.00000000
H        H    0.46060000  0.24530000  0.59320000  0.00000000
H        H    0.24530000  0.46060000  0.15680000  0.00000000
H        H    0.75470000  0.46060000  0.84320000  0.00000000
H        H    0.75470000  0.53940000  0.65680000  0.00000000
C        C    0.21920000  0.63260000  0.35561000  0.00000000
C        C    0.36740000  0.78080000  0.89439000  0.00000000
C        C    0.63260000  0.78080000  0.10561000  0.00000000
C        C    0.63260000  0.21920000  0.39439000  0.00000000
C        C    0.36740000  0.21920000  0.60561000  0.00000000
C        C    0.21920000  0.36740000  0.14439000  0.00000000
C        C    0.78080000  0.36740000  0.85561000  0.00000000
C        C    0.78080000  0.63260000  0.64439000  0.00000000
C        C    0.18350000  0.66740000  0.37481000  0.00000000
C        C    0.33260000  0.81650000  0.87519000  0.00000000
C        C    0.66740000  0.81650000  0.12481000  0.00000000
C        C    0.66740000  0.18350000  0.37519000  0.00000000
C        C    0.33260000  0.18350000  0.62481000  0.00000000
C        C    0.18350000  0.33260000  0.12519000  0.00000000
C        C    0.81650000  0.33260000  0.87481000  0.00000000
C        C    0.81650000  0.66740000  0.62519000  0.00000000
C        C    0.14850000  0.63100000  0.39558000  0.00000000
C        C    0.36900000  0.85150000  0.85442000  0.00000000
C        C    0.63100000  0.85150000  0.14558000  0.00000000
C        C    0.63100000  0.14850000  0.35442000  0.00000000
C        C    0.36900000  0.14850000  0.64558000  0.00000000
C        C    0.14850000  0.36900000  0.10442000  0.00000000
C        C    0.85150000  0.36900000  0.89558000  0.00000000
C        C    0.85150000  0.63100000  0.60442000  0.00000000
C        C    0.15080000  0.56220000  0.39609000  0.00000000
C        C    0.43780000  0.84920000  0.85391000  0.00000000
C        C    0.56220000  0.84920000  0.14609000  0.00000000
C        C    0.56220000  0.15080000  0.35391000  0.00000000
C        C    0.43780000  0.15080000  0.64609000  0.00000000
C        C    0.15080000  0.43780000  0.10391000  0.00000000
C        C    0.84920000  0.43780000  0.89609000  0.00000000
C        C    0.84920000  0.56220000  0.60391000  0.00000000
C        C    0.11520000  0.52730000  0.41624000  0.00000000
C        C    0.47270000  0.88480000  0.83376000  0.00000000
C        C    0.52730000  0.88480000  0.16624000  0.00000000
C        C    0.52730000  0.11520000  0.33376000  0.00000000
C        C    0.47270000  0.11520000  0.66624000  0.00000000
C        C    0.11520000  0.47270000  0.08376000  0.00000000
C        C    0.88480000  0.47270000  0.91624000  0.00000000
C        C    0.88480000  0.52730000  0.58376000  0.00000000
H        H    0.11630000  0.48060000  0.41670000  0.00000000
H        H    0.51940000  0.88370000  0.83330000  0.00000000
H        H    0.48060000  0.88370000  0.16670000  0.00000000
H        H    0.48060000  0.11630000  0.33330000  0.00000000
H        H    0.51940000  0.11630000  0.66670000  0.00000000
H        H    0.11630000  0.51940000  0.08330000  0.00000000
H        H    0.88370000  0.51940000  0.91670000  0.00000000
H        H    0.88370000  0.48060000  0.58330000  0.00000000
C        C    0.07990000  0.56110000  0.43460000  0.00000000
C        C    0.43890000  0.92010000  0.81540000  0.00000000
C        C    0.56110000  0.92010000  0.18460000  0.00000000
C        C    0.56110000  0.07990000  0.31540000  0.00000000
C        C    0.43890000  0.07990000  0.68460000  0.00000000
C        C    0.07990000  0.43890000  0.06540000  0.00000000
C        C    0.92010000  0.43890000  0.93460000  0.00000000
C        C    0.92010000  0.56110000  0.56540000  0.00000000
C        C    0.07870000  0.63080000  0.43490000  0.00000000
C        C    0.36920000  0.92130000  0.81510000  0.00000000
C        C    0.63080000  0.92130000  0.18490000  0.00000000
C        C    0.63080000  0.07870000  0.31510000  0.00000000
C        C    0.36920000  0.07870000  0.68490000  0.00000000
C        C    0.07870000  0.36920000  0.06510000  0.00000000
C        C    0.92130000  0.36920000  0.93490000  0.00000000
C        C    0.92130000  0.63080000  0.56510000  0.00000000
H        H    0.05550000  0.65390000  0.44860000  0.00000000
H        H    0.34610000  0.94450000  0.80140000  0.00000000
H        H    0.65390000  0.94450000  0.19860000  0.00000000
H        H    0.65390000  0.05550000  0.30140000  0.00000000
H        H    0.34610000  0.05550000  0.69860000  0.00000000
H        H    0.05550000  0.34610000  0.05140000  0.00000000
H        H    0.94450000  0.34610000  0.94860000  0.00000000
H        H    0.94450000  0.65390000  0.55140000  0.00000000
C        C    0.11130000  0.66360000  0.41531000  0.00000000
C        C    0.33640000  0.88870000  0.83469000  0.00000000
C        C    0.66360000  0.88870000  0.16531000  0.00000000
C        C    0.66360000  0.11130000  0.33469000  0.00000000
C        C    0.33640000  0.11130000  0.66531000  0.00000000
C        C    0.11130000  0.33640000  0.08469000  0.00000000
C        C    0.88870000  0.33640000  0.91531000  0.00000000
C        C    0.88870000  0.66360000  0.58469000  0.00000000
H        H    0.10900000  0.71040000  0.41490000  0.00000000
H        H    0.28960000  0.89100000  0.83510000  0.00000000
H        H    0.71040000  0.89100000  0.16490000  0.00000000
H        H    0.71040000  0.10900000  0.33510000  0.00000000
H        H    0.28960000  0.10900000  0.66490000  0.00000000
H        H    0.10900000  0.28960000  0.08510000  0.00000000
H        H    0.89100000  0.28960000  0.91490000  0.00000000
H        H    0.89100000  0.71040000  0.58510000  0.00000000
C        C    0.18110000  0.74040000  0.37434000  0.00000000
C        C    0.25960000  0.81890000  0.87566000  0.00000000
C        C    0.74040000  0.81890000  0.12434000  0.00000000
C        C    0.74040000  0.18110000  0.37566000  0.00000000
C        C    0.25960000  0.18110000  0.62434000  0.00000000
C        C    0.18110000  0.25960000  0.12566000  0.00000000
C        C    0.81890000  0.25960000  0.87434000  0.00000000
C        C    0.81890000  0.74040000  0.62566000  0.00000000
C        C    0.13860000  0.77390000  0.35589000  0.00000000
C        C    0.22610000  0.86140000  0.89411000  0.00000000
C        C    0.77390000  0.86140000  0.10589000  0.00000000
C        C    0.77390000  0.13860000  0.39411000  0.00000000
C        C    0.22610000  0.13860000  0.60589000  0.00000000
C        C    0.13860000  0.22610000  0.14411000  0.00000000
C        C    0.86140000  0.22610000  0.85589000  0.00000000
C        C    0.86140000  0.77390000  0.64411000  0.00000000
C        C    0.09920000  0.74000000  0.33750000  0.00000000
C        C    0.26000000  0.90080000  0.91250000  0.00000000
C        C    0.74000000  0.90080000  0.08750000  0.00000000
C        C    0.74000000  0.09920000  0.41250000  0.00000000
C        C    0.26000000  0.09920000  0.58750000  0.00000000
C        C    0.09920000  0.26000000  0.16250000  0.00000000
C        C    0.90080000  0.26000000  0.83750000  0.00000000
C        C    0.90080000  0.74000000  0.66250000  0.00000000
H        H    0.10240000  0.69330000  0.33690000  0.00000000
H        H    0.30670000  0.89760000  0.91310000  0.00000000
H        H    0.69330000  0.89760000  0.08690000  0.00000000
H        H    0.69330000  0.10240000  0.41310000  0.00000000
H        H    0.30670000  0.10240000  0.58690000  0.00000000
H        H    0.10240000  0.30670000  0.16310000  0.00000000
H        H    0.89760000  0.30670000  0.83690000  0.00000000
H        H    0.89760000  0.69330000  0.66310000  0.00000000
C        C    0.05670000  0.76990000  0.32049000  0.00000000
C        C    0.23010000  0.94330000  0.92951000  0.00000000
C        C    0.76990000  0.94330000  0.07049000  0.00000000
C        C    0.76990000  0.05670000  0.42951000  0.00000000
C        C    0.23010000  0.05670000  0.57049000  0.00000000
C        C    0.05670000  0.23010000  0.17951000  0.00000000
C        C    0.94330000  0.23010000  0.82049000  0.00000000
C        C    0.94330000  0.76990000  0.67951000  0.00000000
H        H    0.03210000  0.74510000  0.30780000  0.00000000
H        H    0.25490000  0.96790000  0.94220000  0.00000000
H        H    0.74510000  0.96790000  0.05780000  0.00000000
H        H    0.74510000  0.03210000  0.44220000  0.00000000
H        H    0.25490000  0.03210000  0.55780000  0.00000000
H        H    0.03210000  0.25490000  0.19220000  0.00000000
H        H    0.96790000  0.25490000  0.80780000  0.00000000
H        H    0.96790000  0.74510000  0.69220000  0.00000000
C        C    0.04980000  0.83870000  0.32205000  0.00000000
C        C    0.16130000  0.95020000  0.92795000  0.00000000
C        C    0.83870000  0.95020000  0.07205000  0.00000000
C        C    0.83870000  0.04980000  0.42795000  0.00000000
C        C    0.16130000  0.04980000  0.57205000  0.00000000
C        C    0.04980000  0.16130000  0.17795000  0.00000000
C        C    0.95020000  0.16130000  0.82205000  0.00000000
C        C    0.95020000  0.83870000  0.67795000  0.00000000
C        C    0.08740000  0.87470000  0.33966000  0.00000000
C        C    0.12530000  0.91260000  0.91034000  0.00000000
C        C    0.87470000  0.91260000  0.08966000  0.00000000
C        C    0.87470000  0.08740000  0.41034000  0.00000000
C        C    0.12530000  0.08740000  0.58966000  0.00000000
C        C    0.08740000  0.12530000  0.16034000  0.00000000
C        C    0.91260000  0.12530000  0.83966000  0.00000000
C        C    0.91260000  0.87470000  0.66034000  0.00000000
H        H    0.08190000  0.92110000  0.34050000  0.00000000
H        H    0.07890000  0.91810000  0.90950000  0.00000000
H        H    0.92110000  0.91810000  0.09050000  0.00000000
H        H    0.92110000  0.08190000  0.40950000  0.00000000
H        H    0.07890000  0.08190000  0.59050000  0.00000000
H        H    0.08190000  0.07890000  0.15950000  0.00000000
H        H    0.91810000  0.07890000  0.84050000  0.00000000
H        H    0.91810000  0.92110000  0.65950000  0.00000000
C        C    0.13370000  0.84440000  0.35645000  0.00000000
C        C    0.15560000  0.86630000  0.89355000  0.00000000
C        C    0.84440000  0.86630000  0.10645000  0.00000000
C        C    0.84440000  0.13370000  0.39355000  0.00000000
C        C    0.15560000  0.13370000  0.60645000  0.00000000
C        C    0.13370000  0.15560000  0.14355000  0.00000000
C        C    0.86630000  0.15560000  0.85645000  0.00000000
C        C    0.86630000  0.84440000  0.64355000  0.00000000
C        C    0.17490000  0.87950000  0.37484000  0.00000000
C        C    0.12050000  0.82510000  0.87516000  0.00000000
C        C    0.87950000  0.82510000  0.12484000  0.00000000
C        C    0.87950000  0.17490000  0.37516000  0.00000000
C        C    0.12050000  0.17490000  0.62484000  0.00000000
C        C    0.17490000  0.12050000  0.12516000  0.00000000
C        C    0.82510000  0.12050000  0.87484000  0.00000000
C        C    0.82510000  0.87950000  0.62516000  0.00000000
C        C    0.21450000  0.84680000  0.39193000  0.00000000
C        C    0.15320000  0.78550000  0.85807000  0.00000000
C        C    0.84680000  0.78550000  0.14193000  0.00000000
C        C    0.84680000  0.21450000  0.35807000  0.00000000
C        C    0.15320000  0.21450000  0.64193000  0.00000000
C        C    0.21450000  0.15320000  0.10807000  0.00000000
C        C    0.78550000  0.15320000  0.89193000  0.00000000
C        C    0.78550000  0.84680000  0.60807000  0.00000000
H        H    0.24210000  0.87120000  0.40370000  0.00000000
H        H    0.12880000  0.75790000  0.84630000  0.00000000
H        H    0.87120000  0.75790000  0.15370000  0.00000000
H        H    0.87120000  0.24210000  0.34630000  0.00000000
H        H    0.12880000  0.24210000  0.65370000  0.00000000
H        H    0.24210000  0.12880000  0.09630000  0.00000000
H        H    0.75790000  0.12880000  0.90370000  0.00000000
H        H    0.75790000  0.87120000  0.59630000  0.00000000
C        C    0.21650000  0.77630000  0.39283000  0.00000000
C        C    0.22370000  0.78350000  0.85717000  0.00000000
C        C    0.77630000  0.78350000  0.14283000  0.00000000
C        C    0.77630000  0.21650000  0.35717000  0.00000000
C        C    0.22370000  0.21650000  0.64283000  0.00000000
C        C    0.21650000  0.22370000  0.10717000  0.00000000
C        C    0.78350000  0.22370000  0.89283000  0.00000000
C        C    0.78350000  0.77630000  0.60717000  0.00000000
C        C    0.18660000  0.05450000  0.39883000  0.00000000
C        C    0.94550000  0.81340000  0.85117000  0.00000000
C        C    0.05450000  0.81340000  0.14883000  0.00000000
C        C    0.05450000  0.18660000  0.35117000  0.00000000
C        C    0.94550000  0.18660000  0.64883000  0.00000000
C        C    0.18660000  0.94550000  0.10117000  0.00000000
C        C    0.81340000  0.94550000  0.89883000  0.00000000
C        C    0.81340000  0.05450000  0.60117000  0.00000000
H        H    0.18540000  0.07720000  0.41560000  0.00000000
H        H    0.92280000  0.81460000  0.83440000  0.00000000
H        H    0.07720000  0.81460000  0.16560000  0.00000000
H        H    0.07720000  0.18540000  0.33440000  0.00000000
H        H    0.92280000  0.18540000  0.66560000  0.00000000
H        H    0.18540000  0.92280000  0.08440000  0.00000000
H        H    0.81460000  0.92280000  0.91560000  0.00000000
H        H    0.81460000  0.07720000  0.58440000  0.00000000
C        C    0.17710000  0.98730000  0.39903000  0.00000000
C        C    0.01270000  0.82290000  0.85097000  0.00000000
C        C    0.98730000  0.82290000  0.14903000  0.00000000
C        C    0.98730000  0.17710000  0.35097000  0.00000000
C        C    0.01270000  0.17710000  0.64903000  0.00000000
C        C    0.17710000  0.01270000  0.10097000  0.00000000
C        C    0.82290000  0.01270000  0.89903000  0.00000000
C        C    0.82290000  0.98730000  0.60097000  0.00000000
H        H    0.16930000  0.96510000  0.41560000  0.00000000
H        H    0.03490000  0.83070000  0.83440000  0.00000000
H        H    0.96510000  0.83070000  0.16560000  0.00000000
H        H    0.96510000  0.16930000  0.33440000  0.00000000
H        H    0.03490000  0.16930000  0.66560000  0.00000000
H        H    0.16930000  0.03490000  0.08440000  0.00000000
H        H    0.83070000  0.03490000  0.91560000  0.00000000
H        H    0.83070000  0.96510000  0.58440000  0.00000000
C        C    0.17900000  0.95260000  0.37556000  0.00000000
C        C    0.04740000  0.82100000  0.87444000  0.00000000
C        C    0.95260000  0.82100000  0.12556000  0.00000000
C        C    0.95260000  0.17900000  0.37444000  0.00000000
C        C    0.04740000  0.17900000  0.62556000  0.00000000
C        C    0.17900000  0.04740000  0.12444000  0.00000000
C        C    0.82100000  0.04740000  0.87556000  0.00000000
C        C    0.82100000  0.95260000  0.62444000  0.00000000
C        C    0.18660000  0.98950000  0.35195000  0.00000000
C        C    0.01050000  0.81340000  0.89805000  0.00000000
C        C    0.98950000  0.81340000  0.10195000  0.00000000
C        C    0.98950000  0.18660000  0.39805000  0.00000000
C        C    0.01050000  0.18660000  0.60195000  0.00000000
C        C    0.18660000  0.01050000  0.14805000  0.00000000
C        C    0.81340000  0.01050000  0.85195000  0.00000000
C        C    0.81340000  0.98950000  0.64805000  0.00000000
H        H    0.18510000  0.96830000  0.33490000  0.00000000
H        H    0.03170000  0.81490000  0.91510000  0.00000000
H        H    0.96830000  0.81490000  0.08490000  0.00000000
H        H    0.96830000  0.18510000  0.41510000  0.00000000
H        H    0.03170000  0.18510000  0.58490000  0.00000000
H        H    0.18510000  0.03170000  0.16510000  0.00000000
H        H    0.81490000  0.03170000  0.83490000  0.00000000
H        H    0.81490000  0.96830000  0.66510000  0.00000000
C        C    0.19630000  0.05660000  0.35336000  0.00000000
C        C    0.94340000  0.80370000  0.89664000  0.00000000
C        C    0.05660000  0.80370000  0.10336000  0.00000000
C        C    0.05660000  0.19630000  0.39664000  0.00000000
C        C    0.94340000  0.19630000  0.60336000  0.00000000
C        C    0.19630000  0.94340000  0.14664000  0.00000000
C        C    0.80370000  0.94340000  0.85336000  0.00000000
C        C    0.80370000  0.05660000  0.64664000  0.00000000
H        H    0.20260000  0.08050000  0.33710000  0.00000000
H        H    0.91950000  0.79740000  0.91290000  0.00000000
H        H    0.08050000  0.79740000  0.08710000  0.00000000
H        H    0.08050000  0.20260000  0.41290000  0.00000000
H        H    0.91950000  0.20260000  0.58710000  0.00000000
H        H    0.20260000  0.91950000  0.16290000  0.00000000
H        H    0.79740000  0.91950000  0.83710000  0.00000000
H        H    0.79740000  0.08050000  0.66290000  0.00000000
C        C    0.11420000  0.39310000  0.21427000  0.00000000
C        C    0.60690000  0.88580000  0.03573000  0.00000000
C        C    0.39310000  0.88580000  0.96427000  0.00000000
C        C    0.39310000  0.11420000  0.53573000  0.00000000
C        C    0.60690000  0.11420000  0.46427000  0.00000000
C        C    0.11420000  0.60690000  0.28573000  0.00000000
C        C    0.88580000  0.60690000  0.71427000  0.00000000
C        C    0.88580000  0.39310000  0.78573000  0.00000000
H        H    0.15940000  0.38110000  0.21330000  0.00000000
H        H    0.61890000  0.84060000  0.03670000  0.00000000
H        H    0.38110000  0.84060000  0.96330000  0.00000000
H        H    0.38110000  0.15940000  0.53670000  0.00000000
H        H    0.61890000  0.15940000  0.46330000  0.00000000
H        H    0.15940000  0.61890000  0.28670000  0.00000000
H        H    0.84060000  0.61890000  0.71330000  0.00000000
H        H    0.84060000  0.38110000  0.78670000  0.00000000
C        C    0.08870000  0.42920000  0.19376000  0.00000000
C        C    0.57080000  0.91130000  0.05624000  0.00000000
C        C    0.42920000  0.91130000  0.94376000  0.00000000
C        C    0.42920000  0.08870000  0.55624000  0.00000000
C        C    0.57080000  0.08870000  0.44376000  0.00000000
C        C    0.08870000  0.57080000  0.30624000  0.00000000
C        C    0.91130000  0.57080000  0.69376000  0.00000000
C        C    0.91130000  0.42920000  0.80624000  0.00000000
H        H    0.11560000  0.43970000  0.17870000  0.00000000
H        H    0.56030000  0.88440000  0.07130000  0.00000000
H        H    0.43970000  0.88440000  0.92870000  0.00000000
H        H    0.43970000  0.11560000  0.57130000  0.00000000
H        H    0.56030000  0.11560000  0.42870000  0.00000000
H        H    0.11560000  0.56030000  0.32130000  0.00000000
H        H    0.88440000  0.56030000  0.67870000  0.00000000
H        H    0.88440000  0.43970000  0.82130000  0.00000000
C        C    0.02550000  0.45040000  0.19445000  0.00000000
C        C    0.54960000  0.97450000  0.05555000  0.00000000
C        C    0.45040000  0.97450000  0.94445000  0.00000000
C        C    0.45040000  0.02550000  0.55555000  0.00000000
C        C    0.54960000  0.02550000  0.44445000  0.00000000
C        C    0.02550000  0.54960000  0.30555000  0.00000000
C        C    0.97450000  0.54960000  0.69445000  0.00000000
C        C    0.97450000  0.45040000  0.80555000  0.00000000
C        C    0.99330000  0.43230000  0.21670000  0.00000000
C        C    0.56770000  0.00670000  0.03330000  0.00000000
C        C    0.43230000  0.00670000  0.96670000  0.00000000
C        C    0.43230000  0.99330000  0.53330000  0.00000000
C        C    0.56770000  0.99330000  0.46670000  0.00000000
C        C    0.99330000  0.56770000  0.28330000  0.00000000
C        C    0.00670000  0.56770000  0.71670000  0.00000000
C        C    0.00670000  0.43230000  0.78330000  0.00000000
H        H    0.94890000  0.44600000  0.21890000  0.00000000
H        H    0.55400000  0.05110000  0.03110000  0.00000000
H        H    0.44600000  0.05110000  0.96890000  0.00000000
H        H    0.44600000  0.94890000  0.53110000  0.00000000
H        H    0.55400000  0.94890000  0.46890000  0.00000000
H        H    0.94890000  0.55400000  0.28110000  0.00000000
H        H    0.05110000  0.55400000  0.71890000  0.00000000
H        H    0.05110000  0.44600000  0.78110000  0.00000000
C        C    0.02110000  0.39550000  0.23630000  0.00000000
C        C    0.60450000  0.97890000  0.01370000  0.00000000
C        C    0.39550000  0.97890000  0.98630000  0.00000000
C        C    0.39550000  0.02110000  0.51370000  0.00000000
C        C    0.60450000  0.02110000  0.48630000  0.00000000
C        C    0.02110000  0.60450000  0.26370000  0.00000000
C        C    0.97890000  0.60450000  0.73630000  0.00000000
C        C    0.97890000  0.39550000  0.76370000  0.00000000
H        H    0.99560000  0.38480000  0.25170000  0.00000000
H        H    0.61520000  0.00440000  0.99830000  0.00000000
H        H    0.38480000  0.00440000  0.00170000  0.00000000
H        H    0.38480000  0.99560000  0.49830000  0.00000000
H        H    0.61520000  0.99560000  0.50170000  0.00000000
H        H    0.99560000  0.61520000  0.24830000  0.00000000
H        H    0.00440000  0.61520000  0.75170000  0.00000000
H        H    0.00440000  0.38480000  0.74830000  0.00000000
C        C    0.99620000  0.49240000  0.17288000  0.00000000
C        C    0.50760000  0.00380000  0.07712000  0.00000000
C        C    0.49240000  0.00380000  0.92288000  0.00000000
C        C    0.49240000  0.99620000  0.57712000  0.00000000
C        C    0.50760000  0.99620000  0.42288000  0.00000000
C        C    0.99620000  0.50760000  0.32712000  0.00000000
C        C    0.00380000  0.50760000  0.67288000  0.00000000
C        C    0.00380000  0.49240000  0.82712000  0.00000000
C        C    0.97260000  0.46330000  0.14854000  0.00000000
C        C    0.53670000  0.02740000  0.10146000  0.00000000
C        C    0.46330000  0.02740000  0.89854000  0.00000000
C        C    0.46330000  0.97260000  0.60146000  0.00000000
C        C    0.53670000  0.97260000  0.39854000  0.00000000
C        C    0.97260000  0.53670000  0.35146000  0.00000000
C        C    0.02740000  0.53670000  0.64854000  0.00000000
C        C    0.02740000  0.46330000  0.85146000  0.00000000
C        C    0.97310000  0.39310000  0.14430000  0.00000000
C        C    0.60690000  0.02690000  0.10570000  0.00000000
C        C    0.39310000  0.02690000  0.89430000  0.00000000
C        C    0.39310000  0.97310000  0.60570000  0.00000000
C        C    0.60690000  0.97310000  0.39430000  0.00000000
C        C    0.97310000  0.60690000  0.35570000  0.00000000
C        C    0.02690000  0.60690000  0.64430000  0.00000000
C        C    0.02690000  0.39310000  0.85570000  0.00000000
H        H    0.98780000  0.36440000  0.15820000  0.00000000
H        H    0.63560000  0.01220000  0.09180000  0.00000000
H        H    0.36440000  0.01220000  0.90820000  0.00000000
H        H    0.36440000  0.98780000  0.59180000  0.00000000
H        H    0.63560000  0.98780000  0.40820000  0.00000000
H        H    0.98780000  0.63560000  0.34180000  0.00000000
H        H    0.01220000  0.63560000  0.65820000  0.00000000
H        H    0.01220000  0.36440000  0.84180000  0.00000000
C        C    0.95230000  0.36830000  0.12040000  0.00000000
C        C    0.63170000  0.04770000  0.12960000  0.00000000
C        C    0.36830000  0.04770000  0.87040000  0.00000000
C        C    0.36830000  0.95230000  0.62960000  0.00000000
C        C    0.63170000  0.95230000  0.37040000  0.00000000
C        C    0.95230000  0.63170000  0.37960000  0.00000000
C        C    0.04770000  0.63170000  0.62040000  0.00000000
C        C    0.04770000  0.36830000  0.87960000  0.00000000
C        C    0.92530000  0.41010000  0.09960000  0.00000000
C        C    0.58990000  0.07470000  0.15040000  0.00000000
C        C    0.41010000  0.07470000  0.84960000  0.00000000
C        C    0.41010000  0.92530000  0.65040000  0.00000000
C        C    0.58990000  0.92530000  0.34960000  0.00000000
C        C    0.92530000  0.58990000  0.40040000  0.00000000
C        C    0.07470000  0.58990000  0.59960000  0.00000000
C        C    0.07470000  0.41010000  0.90040000  0.00000000
H        H    0.90730000  0.39150000  0.08370000  0.00000000
H        H    0.60850000  0.09270000  0.16630000  0.00000000
H        H    0.39150000  0.09270000  0.83370000  0.00000000
H        H    0.39150000  0.90730000  0.66630000  0.00000000
H        H    0.60850000  0.90730000  0.33370000  0.00000000
H        H    0.90730000  0.60850000  0.41630000  0.00000000
H        H    0.09270000  0.60850000  0.58370000  0.00000000
H        H    0.09270000  0.39150000  0.91630000  0.00000000
C        C    0.92610000  0.47640000  0.10309000  0.00000000
C        C    0.52360000  0.07390000  0.14691000  0.00000000
C        C    0.47640000  0.07390000  0.85309000  0.00000000
C        C    0.47640000  0.92610000  0.64691000  0.00000000
C        C    0.52360000  0.92610000  0.35309000  0.00000000
C        C    0.92610000  0.52360000  0.39691000  0.00000000
C        C    0.07390000  0.52360000  0.60309000  0.00000000
C        C    0.07390000  0.47640000  0.89691000  0.00000000
H        H    0.91160000  0.50430000  0.08890000  0.00000000
H        H    0.49570000  0.08840000  0.16110000  0.00000000
H        H    0.50430000  0.08840000  0.83890000  0.00000000
H        H    0.50430000  0.91160000  0.66110000  0.00000000
H        H    0.49570000  0.91160000  0.33890000  0.00000000
H        H    0.91160000  0.49570000  0.41110000  0.00000000
H        H    0.08840000  0.49570000  0.58890000  0.00000000
H        H    0.08840000  0.50430000  0.91110000  0.00000000
C        C    0.94820000  0.50460000  0.12753000  0.00000000
C        C    0.49540000  0.05180000  0.12247000  0.00000000
C        C    0.50460000  0.05180000  0.87753000  0.00000000
C        C    0.50460000  0.94820000  0.62247000  0.00000000
C        C    0.49540000  0.94820000  0.37753000  0.00000000
C        C    0.94820000  0.49540000  0.37247000  0.00000000
C        C    0.05180000  0.49540000  0.62753000  0.00000000
C        C    0.05180000  0.50460000  0.87247000  0.00000000
C        C    0.94520000  0.57390000  0.13155000  0.00000000
C        C    0.42610000  0.05480000  0.11845000  0.00000000
C        C    0.57390000  0.05480000  0.88155000  0.00000000
C        C    0.57390000  0.94520000  0.61845000  0.00000000
C        C    0.42610000  0.94520000  0.38155000  0.00000000
C        C    0.94520000  0.42610000  0.36845000  0.00000000
C        C    0.05480000  0.42610000  0.63155000  0.00000000
C        C    0.05480000  0.57390000  0.86845000  0.00000000
C        C    0.96680000  0.59990000  0.15554000  0.00000000
C        C    0.40010000  0.03320000  0.09446000  0.00000000
C        C    0.59990000  0.03320000  0.90554000  0.00000000
C        C    0.59990000  0.96680000  0.59446000  0.00000000
C        C    0.40010000  0.96680000  0.40554000  0.00000000
C        C    0.96680000  0.40010000  0.34446000  0.00000000
C        C    0.03320000  0.40010000  0.65554000  0.00000000
C        C    0.03320000  0.59990000  0.84446000  0.00000000
C        C    0.99290000  0.55750000  0.17592000  0.00000000
C        C    0.44250000  0.00710000  0.07408000  0.00000000
C        C    0.55750000  0.00710000  0.92592000  0.00000000
C        C    0.55750000  0.99290000  0.57408000  0.00000000
C        C    0.44250000  0.99290000  0.42592000  0.00000000
C        C    0.99290000  0.44250000  0.32408000  0.00000000
C        C    0.00710000  0.44250000  0.67592000  0.00000000
C        C    0.00710000  0.55750000  0.82408000  0.00000000
H        H    0.00840000  0.57650000  0.19220000  0.00000000
H        H    0.42350000  0.99160000  0.05780000  0.00000000
H        H    0.57650000  0.99160000  0.94220000  0.00000000
H        H    0.57650000  0.00840000  0.55780000  0.00000000
H        H    0.42350000  0.00840000  0.44220000  0.00000000
H        H    0.00840000  0.42350000  0.30780000  0.00000000
H        H    0.99160000  0.42350000  0.69220000  0.00000000
H        H    0.99160000  0.57650000  0.80780000  0.00000000
C        C    0.91660000  0.61690000  0.11005000  0.00000000
C        C    0.38310000  0.08340000  0.13995000  0.00000000
C        C    0.61690000  0.08340000  0.86005000  0.00000000
C        C    0.61690000  0.91660000  0.63995000  0.00000000
C        C    0.38310000  0.91660000  0.36005000  0.00000000
C        C    0.91660000  0.38310000  0.38995000  0.00000000
C        C    0.08340000  0.38310000  0.61005000  0.00000000
C        C    0.08340000  0.61690000  0.88995000  0.00000000
C        C    0.95670000  0.64390000  0.08969000  0.00000000
C        C    0.35610000  0.04330000  0.16031000  0.00000000
C        C    0.64390000  0.04330000  0.83969000  0.00000000
C        C    0.64390000  0.95670000  0.66031000  0.00000000
C        C    0.35610000  0.95670000  0.33969000  0.00000000
C        C    0.95670000  0.35610000  0.41031000  0.00000000
C        C    0.04330000  0.35610000  0.58969000  0.00000000
C        C    0.04330000  0.64390000  0.91031000  0.00000000
C        C    0.02650000  0.63430000  0.09019000  0.00000000
C        C    0.36570000  0.97350000  0.15981000  0.00000000
C        C    0.63430000  0.97350000  0.84019000  0.00000000
C        C    0.63430000  0.02650000  0.65981000  0.00000000
C        C    0.36570000  0.02650000  0.34019000  0.00000000
C        C    0.02650000  0.36570000  0.40981000  0.00000000
C        C    0.97350000  0.36570000  0.59019000  0.00000000
C        C    0.97350000  0.63430000  0.90981000  0.00000000
H        H    0.04530000  0.61100000  0.10490000  0.00000000
H        H    0.38900000  0.95470000  0.14510000  0.00000000
H        H    0.61100000  0.95470000  0.85490000  0.00000000
H        H    0.61100000  0.04530000  0.64510000  0.00000000
H        H    0.38900000  0.04530000  0.35490000  0.00000000
H        H    0.04530000  0.38900000  0.39510000  0.00000000
H        H    0.95470000  0.38900000  0.60490000  0.00000000
H        H    0.95470000  0.61100000  0.89510000  0.00000000
C        C    0.06730000  0.65730000  0.07042000  0.00000000
C        C    0.34270000  0.93270000  0.17958000  0.00000000
C        C    0.65730000  0.93270000  0.82042000  0.00000000
C        C    0.65730000  0.06730000  0.67958000  0.00000000
C        C    0.34270000  0.06730000  0.32042000  0.00000000
C        C    0.06730000  0.34270000  0.42958000  0.00000000
C        C    0.93270000  0.34270000  0.57042000  0.00000000
C        C    0.93270000  0.65730000  0.92958000  0.00000000
H        H    0.11360000  0.65060000  0.07140000  0.00000000
H        H    0.34940000  0.88640000  0.17860000  0.00000000
H        H    0.65060000  0.88640000  0.82140000  0.00000000
H        H    0.65060000  0.11360000  0.67860000  0.00000000
H        H    0.34940000  0.11360000  0.32140000  0.00000000
H        H    0.11360000  0.34940000  0.42860000  0.00000000
H        H    0.88640000  0.34940000  0.57140000  0.00000000
H        H    0.88640000  0.65060000  0.92860000  0.00000000
C        C    0.03850000  0.69180000  0.04830000  0.00000000
C        C    0.30820000  0.96150000  0.20170000  0.00000000
C        C    0.69180000  0.96150000  0.79830000  0.00000000
C        C    0.69180000  0.03850000  0.70170000  0.00000000
C        C    0.30820000  0.03850000  0.29830000  0.00000000
C        C    0.03850000  0.30820000  0.45170000  0.00000000
C        C    0.96150000  0.30820000  0.54830000  0.00000000
C        C    0.96150000  0.69180000  0.95170000  0.00000000
C        C    0.97170000  0.70200000  0.04727000  0.00000000
C        C    0.29800000  0.02830000  0.20273000  0.00000000
C        C    0.70200000  0.02830000  0.79727000  0.00000000
C        C    0.70200000  0.97170000  0.70273000  0.00000000
C        C    0.29800000  0.97170000  0.29727000  0.00000000
C        C    0.97170000  0.29800000  0.45273000  0.00000000
C        C    0.02830000  0.29800000  0.54727000  0.00000000
C        C    0.02830000  0.70200000  0.95273000  0.00000000
H        H    0.95360000  0.72450000  0.03220000  0.00000000
H        H    0.27550000  0.04640000  0.21780000  0.00000000
H        H    0.72450000  0.04640000  0.78220000  0.00000000
H        H    0.72450000  0.95360000  0.71780000  0.00000000
H        H    0.27550000  0.95360000  0.28220000  0.00000000
H        H    0.95360000  0.27550000  0.46780000  0.00000000
H        H    0.04640000  0.27550000  0.53220000  0.00000000
H        H    0.04640000  0.72450000  0.96780000  0.00000000
C        C    0.93000000  0.68050000  0.06754000  0.00000000
C        C    0.31950000  0.07000000  0.18246000  0.00000000
C        C    0.68050000  0.07000000  0.81754000  0.00000000
C        C    0.68050000  0.93000000  0.68246000  0.00000000
C        C    0.31950000  0.93000000  0.31754000  0.00000000
C        C    0.93000000  0.31950000  0.43246000  0.00000000
C        C    0.07000000  0.31950000  0.56754000  0.00000000
C        C    0.07000000  0.68050000  0.93246000  0.00000000
C        C    0.85950000  0.69230000  0.06829000  0.00000000
C        C    0.30770000  0.14050000  0.18171000  0.00000000
C        C    0.69230000  0.14050000  0.81829000  0.00000000
C        C    0.69230000  0.85950000  0.68171000  0.00000000
C        C    0.30770000  0.85950000  0.31829000  0.00000000
C        C    0.85950000  0.30770000  0.43171000  0.00000000
C        C    0.14050000  0.30770000  0.56829000  0.00000000
C        C    0.14050000  0.69230000  0.93171000  0.00000000
C        C    0.82240000  0.66870000  0.08842000  0.00000000
C        C    0.33130000  0.17760000  0.16158000  0.00000000
C        C    0.66870000  0.17760000  0.83842000  0.00000000
C        C    0.66870000  0.82240000  0.66158000  0.00000000
C        C    0.33130000  0.82240000  0.33842000  0.00000000
C        C    0.82240000  0.33130000  0.41158000  0.00000000
C        C    0.17760000  0.33130000  0.58842000  0.00000000
C        C    0.17760000  0.66870000  0.91158000  0.00000000
H        H    0.77660000  0.67820000  0.08860000  0.00000000
H        H    0.32180000  0.22340000  0.16140000  0.00000000
H        H    0.67820000  0.22340000  0.83860000  0.00000000
H        H    0.67820000  0.77660000  0.66140000  0.00000000
H        H    0.32180000  0.77660000  0.33860000  0.00000000
H        H    0.77660000  0.32180000  0.41140000  0.00000000
H        H    0.22340000  0.32180000  0.58860000  0.00000000
H        H    0.22340000  0.67820000  0.91140000  0.00000000
C        C    0.85020000  0.62950000  0.10970000  0.00000000
C        C    0.37050000  0.14980000  0.14030000  0.00000000
C        C    0.62950000  0.14980000  0.85970000  0.00000000
C        C    0.62950000  0.85020000  0.64030000  0.00000000
C        C    0.37050000  0.85020000  0.35970000  0.00000000
C        C    0.85020000  0.37050000  0.39030000  0.00000000
C        C    0.14980000  0.37050000  0.60970000  0.00000000
C        C    0.14980000  0.62950000  0.89030000  0.00000000
C        C    0.80920000  0.83120000  0.02101000  0.00000000
C        C    0.16880000  0.19080000  0.22899000  0.00000000
C        C    0.83120000  0.19080000  0.77101000  0.00000000
C        C    0.83120000  0.80920000  0.72899000  0.00000000
C        C    0.16880000  0.80920000  0.27101000  0.00000000
C        C    0.80920000  0.16880000  0.47899000  0.00000000
C        C    0.19080000  0.16880000  0.52101000  0.00000000
C        C    0.19080000  0.83120000  0.97899000  0.00000000
C        C    0.84660000  0.79380000  0.03917000  0.00000000
C        C    0.20620000  0.15340000  0.21083000  0.00000000
C        C    0.79380000  0.15340000  0.78917000  0.00000000
C        C    0.79380000  0.84660000  0.71083000  0.00000000
C        C    0.20620000  0.84660000  0.28917000  0.00000000
C        C    0.84660000  0.20620000  0.46083000  0.00000000
C        C    0.15340000  0.20620000  0.53917000  0.00000000
C        C    0.15340000  0.79380000  0.96083000  0.00000000
H        H    0.88610000  0.81160000  0.04640000  0.00000000
H        H    0.18840000  0.11390000  0.20360000  0.00000000
H        H    0.81160000  0.11390000  0.79640000  0.00000000
H        H    0.81160000  0.88610000  0.70360000  0.00000000
H        H    0.18840000  0.88610000  0.29640000  0.00000000
H        H    0.88610000  0.18840000  0.45360000  0.00000000
H        H    0.11390000  0.18840000  0.54640000  0.00000000
H        H    0.11390000  0.81160000  0.95360000  0.00000000
C        C    0.82700000  0.73190000  0.04667000  0.00000000
C        C    0.26810000  0.17300000  0.20333000  0.00000000
C        C    0.73190000  0.17300000  0.79667000  0.00000000
C        C    0.73190000  0.82700000  0.70333000  0.00000000
C        C    0.26810000  0.82700000  0.29667000  0.00000000
C        C    0.82700000  0.26810000  0.45333000  0.00000000
C        C    0.17300000  0.26810000  0.54667000  0.00000000
C        C    0.17300000  0.73190000  0.95333000  0.00000000
C        C    0.76920000  0.70730000  0.03488000  0.00000000
C        C    0.29270000  0.23080000  0.21512000  0.00000000
C        C    0.70730000  0.23080000  0.78488000  0.00000000
C        C    0.70730000  0.76920000  0.71512000  0.00000000
C        C    0.29270000  0.76920000  0.28488000  0.00000000
C        C    0.76920000  0.29270000  0.46512000  0.00000000
C        C    0.23080000  0.29270000  0.53488000  0.00000000
C        C    0.23080000  0.70730000  0.96512000  0.00000000
H        H    0.75410000  0.66430000  0.03930000  0.00000000
H        H    0.33570000  0.24590000  0.21070000  0.00000000
H        H    0.66430000  0.24590000  0.78930000  0.00000000
H        H    0.66430000  0.75410000  0.71070000  0.00000000
H        H    0.33570000  0.75410000  0.28930000  0.00000000
H        H    0.75410000  0.33570000  0.46070000  0.00000000
H        H    0.24590000  0.33570000  0.53930000  0.00000000
H        H    0.24590000  0.66430000  0.96070000  0.00000000
C        C    0.73440000  0.74570000  0.01685000  0.00000000
C        C    0.25430000  0.26560000  0.23315000  0.00000000
C        C    0.74570000  0.26560000  0.76685000  0.00000000
C        C    0.74570000  0.73440000  0.73315000  0.00000000
C        C    0.25430000  0.73440000  0.26685000  0.00000000
C        C    0.73440000  0.25430000  0.48315000  0.00000000
C        C    0.26560000  0.25430000  0.51685000  0.00000000
C        C    0.26560000  0.74570000  0.98315000  0.00000000
H        H    0.69570000  0.72810000  0.00890000  0.00000000
H        H    0.27190000  0.30430000  0.24110000  0.00000000
H        H    0.72810000  0.30430000  0.75890000  0.00000000
H        H    0.72810000  0.69570000  0.74110000  0.00000000
H        H    0.27190000  0.69570000  0.25890000  0.00000000
H        H    0.69570000  0.27190000  0.49110000  0.00000000
H        H    0.30430000  0.27190000  0.50890000  0.00000000
H        H    0.30430000  0.72810000  0.99110000  0.00000000
H        H    0.87422000  0.17610000  0.76640000  0.00000000
H        H    0.82390000  0.12578000  0.48360000  0.00000000
H        H    0.17610000  0.12578000  0.51640000  0.00000000
H        H    0.17610000  0.87422000  0.98360000  0.00000000
H        H    0.82390000  0.87422000  0.01640000  0.00000000
H        H    0.87422000  0.82390000  0.73360000  0.00000000
H        H    0.12578000  0.82390000  0.26640000  0.00000000
H        H    0.12578000  0.17610000  0.23360000  0.00000000
