data_COF-103

_cell_length_a  28.24770000
_cell_length_b  28.24770000
_cell_length_c  28.24770000
_cell_angle_alpha  90.00000000
_cell_angle_beta  90.00000000
_cell_angle_gamma  90.00000000


_symmetry_space_group_name_Hall ' P 1'
_symmetry_space_group_name_H-M  'P 1'
_symmetry_Int_Tables_number     1

loop_
_atom_site_label
_atom_site_type_symbol
_atom_site_fract_x
_atom_site_fract_y
_atom_site_fract_z
_atom_site_charge
O        O    0.25021000  0.79827000  0.67738000  0.00000000
O        O    0.50021000  0.92738000  0.04827000  0.00000000
O        O    0.25021000  0.20173000  0.82262000  0.00000000
O        O    0.95173000  0.00021000  0.57262000  0.00000000
O        O    0.99979000  0.07262000  0.54827000  0.00000000
O        O    0.79827000  0.67738000  0.25021000  0.00000000
O        O    0.04827000  0.49979000  0.57262000  0.00000000
O        O    0.50021000  0.07262000  0.45173000  0.00000000
O        O    0.32262000  0.24979000  0.79827000  0.00000000
O        O    0.29827000  0.17738000  0.75021000  0.00000000
O        O    0.67738000  0.74979000  0.70173000  0.00000000
O        O    0.70173000  0.67738000  0.74979000  0.00000000
O        O    0.20173000  0.17738000  0.24979000  0.00000000
O        O    0.75021000  0.29827000  0.17738000  0.00000000
O        O    0.20173000  0.82262000  0.25021000  0.00000000
O        O    0.07262000  0.45173000  0.50021000  0.00000000
O        O    0.57262000  0.95173000  0.00021000  0.00000000
O        O    0.45173000  0.49979000  0.42738000  0.00000000
O        O    0.79827000  0.32262000  0.24979000  0.00000000
O        O    0.29827000  0.82262000  0.74979000  0.00000000
O        O    0.49979000  0.42738000  0.45173000  0.00000000
O        O    0.92738000  0.04827000  0.50021000  0.00000000
O        O    0.95173000  0.99979000  0.92738000  0.00000000
O        O    0.67738000  0.25021000  0.79827000  0.00000000
O        O    0.54827000  0.00021000  0.42738000  0.00000000
O        O    0.42738000  0.54827000  0.00021000  0.00000000
O        O    0.99979000  0.92738000  0.95173000  0.00000000
O        O    0.07262000  0.54827000  0.99979000  0.00000000
O        O    0.42738000  0.45173000  0.49979000  0.00000000
O        O    0.70173000  0.32262000  0.75021000  0.00000000
O        O    0.92738000  0.95173000  0.99979000  0.00000000
O        O    0.24979000  0.79827000  0.32262000  0.00000000
O        O    0.17738000  0.75021000  0.29827000  0.00000000
O        O    0.54827000  0.99979000  0.07262000  0.00000000
O        O    0.74979000  0.29827000  0.82262000  0.00000000
O        O    0.24979000  0.20173000  0.17738000  0.00000000
O        O    0.04827000  0.50021000  0.92738000  0.00000000
O        O    0.82262000  0.25021000  0.20173000  0.00000000
O        O    0.00021000  0.57262000  0.95173000  0.00000000
O        O    0.17738000  0.24979000  0.20173000  0.00000000
O        O    0.00021000  0.42738000  0.54827000  0.00000000
O        O    0.49979000  0.57262000  0.04827000  0.00000000
O        O    0.82262000  0.74979000  0.29827000  0.00000000
O        O    0.75021000  0.70173000  0.32262000  0.00000000
O        O    0.32262000  0.75021000  0.70173000  0.00000000
O        O    0.45173000  0.50021000  0.07262000  0.00000000
O        O    0.57262000  0.04827000  0.49979000  0.00000000
O        O    0.74979000  0.70173000  0.67738000  0.00000000
B        B    0.28269000  0.75898000  0.67052000  0.00000000
B        B    0.53269000  0.92052000  0.00898000  0.00000000
B        B    0.28269000  0.24102000  0.82948000  0.00000000
B        B    0.99102000  0.03269000  0.57948000  0.00000000
B        B    0.96731000  0.07948000  0.50898000  0.00000000
B        B    0.75898000  0.67052000  0.28269000  0.00000000
B        B    0.00898000  0.46731000  0.57948000  0.00000000
B        B    0.53269000  0.07948000  0.49102000  0.00000000
B        B    0.32948000  0.21731000  0.75898000  0.00000000
B        B    0.25898000  0.17052000  0.78269000  0.00000000
B        B    0.67052000  0.71731000  0.74102000  0.00000000
B        B    0.74102000  0.67052000  0.71731000  0.00000000
B        B    0.24102000  0.17052000  0.21731000  0.00000000
B        B    0.78269000  0.25898000  0.17052000  0.00000000
B        B    0.24102000  0.82948000  0.28269000  0.00000000
B        B    0.07948000  0.49102000  0.53269000  0.00000000
B        B    0.57948000  0.99102000  0.03269000  0.00000000
B        B    0.49102000  0.46731000  0.42052000  0.00000000
B        B    0.75898000  0.32948000  0.21731000  0.00000000
B        B    0.25898000  0.82948000  0.71731000  0.00000000
B        B    0.46731000  0.42052000  0.49102000  0.00000000
B        B    0.92052000  0.00898000  0.53269000  0.00000000
B        B    0.99102000  0.96731000  0.92052000  0.00000000
B        B    0.67052000  0.28269000  0.75898000  0.00000000
B        B    0.50898000  0.03269000  0.42052000  0.00000000
B        B    0.42052000  0.50898000  0.03269000  0.00000000
B        B    0.96731000  0.92052000  0.99102000  0.00000000
B        B    0.07948000  0.50898000  0.96731000  0.00000000
B        B    0.42052000  0.49102000  0.46731000  0.00000000
B        B    0.74102000  0.32948000  0.78269000  0.00000000
B        B    0.92052000  0.99102000  0.96731000  0.00000000
B        B    0.21731000  0.75898000  0.32948000  0.00000000
B        B    0.17052000  0.78269000  0.25898000  0.00000000
B        B    0.50898000  0.96731000  0.07948000  0.00000000
B        B    0.71731000  0.25898000  0.82948000  0.00000000
B        B    0.21731000  0.24102000  0.17052000  0.00000000
B        B    0.00898000  0.53269000  0.92052000  0.00000000
B        B    0.82948000  0.28269000  0.24102000  0.00000000
B        B    0.03269000  0.57948000  0.99102000  0.00000000
B        B    0.17052000  0.21731000  0.24102000  0.00000000
B        B    0.03269000  0.42052000  0.50898000  0.00000000
B        B    0.46731000  0.57948000  0.00898000  0.00000000
B        B    0.82948000  0.71731000  0.25898000  0.00000000
B        B    0.78269000  0.74102000  0.32948000  0.00000000
B        B    0.32948000  0.78269000  0.74102000  0.00000000
B        B    0.49102000  0.53269000  0.07948000  0.00000000
B        B    0.57948000  0.00898000  0.46731000  0.00000000
B        B    0.71731000  0.74102000  0.67052000  0.00000000
C        C    0.29999000  0.65930000  0.57966000  0.00000000
C        C    0.54999000  0.82966000  0.90930000  0.00000000
C        C    0.29999000  0.34070000  0.92034000  0.00000000
C        C    0.09070000  0.04999000  0.67034000  0.00000000
C        C    0.95001000  0.17034000  0.40930000  0.00000000
C        C    0.65930000  0.57966000  0.29999000  0.00000000
C        C    0.90930000  0.45001000  0.67034000  0.00000000
C        C    0.54999000  0.17034000  0.59070000  0.00000000
C        C    0.42034000  0.20001000  0.65930000  0.00000000
C        C    0.15930000  0.07966000  0.79999000  0.00000000
C        C    0.57966000  0.70001000  0.84070000  0.00000000
C        C    0.84070000  0.57966000  0.70001000  0.00000000
C        C    0.34070000  0.07966000  0.20001000  0.00000000
C        C    0.79999000  0.15930000  0.07966000  0.00000000
C        C    0.34070000  0.92034000  0.29999000  0.00000000
C        C    0.17034000  0.59070000  0.54999000  0.00000000
C        C    0.67034000  0.09070000  0.04999000  0.00000000
C        C    0.59070000  0.45001000  0.32966000  0.00000000
C        C    0.65930000  0.42034000  0.20001000  0.00000000
C        C    0.15930000  0.92034000  0.70001000  0.00000000
C        C    0.45001000  0.32966000  0.59070000  0.00000000
C        C    0.82966000  0.90930000  0.54999000  0.00000000
C        C    0.09070000  0.95001000  0.82966000  0.00000000
C        C    0.57966000  0.29999000  0.65930000  0.00000000
C        C    0.40930000  0.04999000  0.32966000  0.00000000
C        C    0.32966000  0.40930000  0.04999000  0.00000000
C        C    0.95001000  0.82966000  0.09070000  0.00000000
C        C    0.17034000  0.40930000  0.95001000  0.00000000
C        C    0.32966000  0.59070000  0.45001000  0.00000000
C        C    0.84070000  0.42034000  0.79999000  0.00000000
C        C    0.82966000  0.09070000  0.95001000  0.00000000
C        C    0.20001000  0.65930000  0.42034000  0.00000000
C        C    0.07966000  0.79999000  0.15930000  0.00000000
C        C    0.40930000  0.95001000  0.17034000  0.00000000
C        C    0.70001000  0.15930000  0.92034000  0.00000000
C        C    0.20001000  0.34070000  0.07966000  0.00000000
C        C    0.90930000  0.54999000  0.82966000  0.00000000
C        C    0.92034000  0.29999000  0.34070000  0.00000000
C        C    0.04999000  0.67034000  0.09070000  0.00000000
C        C    0.07966000  0.20001000  0.34070000  0.00000000
C        C    0.04999000  0.32966000  0.40930000  0.00000000
C        C    0.45001000  0.67034000  0.90930000  0.00000000
C        C    0.92034000  0.70001000  0.15930000  0.00000000
C        C    0.79999000  0.84070000  0.42034000  0.00000000
C        C    0.42034000  0.79999000  0.84070000  0.00000000
C        C    0.59070000  0.54999000  0.17034000  0.00000000
C        C    0.67034000  0.90930000  0.45001000  0.00000000
C        C    0.70001000  0.84070000  0.57966000  0.00000000
C        C    0.25993000  0.66409000  0.55139000  0.00000000
C        C    0.50993000  0.80139000  0.91409000  0.00000000
C        C    0.25993000  0.33591000  0.94861000  0.00000000
C        C    0.08591000  0.00993000  0.69861000  0.00000000
C        C    0.99007000  0.19861000  0.41409000  0.00000000
C        C    0.66409000  0.55139000  0.25993000  0.00000000
C        C    0.91409000  0.49007000  0.69861000  0.00000000
C        C    0.50993000  0.19861000  0.58591000  0.00000000
C        C    0.44861000  0.24007000  0.66409000  0.00000000
C        C    0.16409000  0.05139000  0.75993000  0.00000000
C        C    0.55139000  0.74007000  0.83591000  0.00000000
C        C    0.83591000  0.55139000  0.74007000  0.00000000
C        C    0.33591000  0.05139000  0.24007000  0.00000000
C        C    0.75993000  0.16409000  0.05139000  0.00000000
C        C    0.33591000  0.94861000  0.25993000  0.00000000
C        C    0.19861000  0.58591000  0.50993000  0.00000000
C        C    0.69861000  0.08591000  0.00993000  0.00000000
C        C    0.58591000  0.49007000  0.30139000  0.00000000
C        C    0.66409000  0.44861000  0.24007000  0.00000000
C        C    0.16409000  0.94861000  0.74007000  0.00000000
C        C    0.49007000  0.30139000  0.58591000  0.00000000
C        C    0.80139000  0.91409000  0.50993000  0.00000000
C        C    0.08591000  0.99007000  0.80139000  0.00000000
C        C    0.55139000  0.25993000  0.66409000  0.00000000
C        C    0.41409000  0.00993000  0.30139000  0.00000000
C        C    0.30139000  0.41409000  0.00993000  0.00000000
C        C    0.99007000  0.80139000  0.08591000  0.00000000
C        C    0.19861000  0.41409000  0.99007000  0.00000000
C        C    0.30139000  0.58591000  0.49007000  0.00000000
C        C    0.83591000  0.44861000  0.75993000  0.00000000
C        C    0.80139000  0.08591000  0.99007000  0.00000000
C        C    0.24007000  0.66409000  0.44861000  0.00000000
C        C    0.05139000  0.75993000  0.16409000  0.00000000
C        C    0.41409000  0.99007000  0.19861000  0.00000000
C        C    0.74007000  0.16409000  0.94861000  0.00000000
C        C    0.24007000  0.33591000  0.05139000  0.00000000
C        C    0.91409000  0.50993000  0.80139000  0.00000000
C        C    0.94861000  0.25993000  0.33591000  0.00000000
C        C    0.00993000  0.69861000  0.08591000  0.00000000
C        C    0.05139000  0.24007000  0.33591000  0.00000000
C        C    0.00993000  0.30139000  0.41409000  0.00000000
C        C    0.49007000  0.69861000  0.91409000  0.00000000
C        C    0.94861000  0.74007000  0.16409000  0.00000000
C        C    0.75993000  0.83591000  0.44861000  0.00000000
C        C    0.44861000  0.75993000  0.83591000  0.00000000
C        C    0.58591000  0.50993000  0.19861000  0.00000000
C        C    0.69861000  0.91409000  0.49007000  0.00000000
C        C    0.74007000  0.83591000  0.55139000  0.00000000
C        C    0.22747000  0.69979000  0.56125000  0.00000000
C        C    0.47747000  0.81125000  0.94979000  0.00000000
C        C    0.22747000  0.30021000  0.93875000  0.00000000
C        C    0.05021000  0.97747000  0.68875000  0.00000000
C        C    0.02253000  0.18875000  0.44979000  0.00000000
C        C    0.69979000  0.56125000  0.22747000  0.00000000
C        C    0.94979000  0.52253000  0.68875000  0.00000000
C        C    0.47747000  0.18875000  0.55021000  0.00000000
C        C    0.43875000  0.27253000  0.69979000  0.00000000
C        C    0.19979000  0.06125000  0.72747000  0.00000000
C        C    0.56125000  0.77253000  0.80021000  0.00000000
C        C    0.80021000  0.56125000  0.77253000  0.00000000
C        C    0.30021000  0.06125000  0.27253000  0.00000000
C        C    0.72747000  0.19979000  0.06125000  0.00000000
C        C    0.30021000  0.93875000  0.22747000  0.00000000
C        C    0.18875000  0.55021000  0.47747000  0.00000000
C        C    0.68875000  0.05021000  0.97747000  0.00000000
C        C    0.55021000  0.52253000  0.31125000  0.00000000
C        C    0.69979000  0.43875000  0.27253000  0.00000000
C        C    0.19979000  0.93875000  0.77253000  0.00000000
C        C    0.52253000  0.31125000  0.55021000  0.00000000
C        C    0.81125000  0.94979000  0.47747000  0.00000000
C        C    0.05021000  0.02253000  0.81125000  0.00000000
C        C    0.56125000  0.22747000  0.69979000  0.00000000
C        C    0.44979000  0.97747000  0.31125000  0.00000000
C        C    0.31125000  0.44979000  0.97747000  0.00000000
C        C    0.02253000  0.81125000  0.05021000  0.00000000
C        C    0.18875000  0.44979000  0.02253000  0.00000000
C        C    0.31125000  0.55021000  0.52253000  0.00000000
C        C    0.80021000  0.43875000  0.72747000  0.00000000
C        C    0.81125000  0.05021000  0.02253000  0.00000000
C        C    0.27253000  0.69979000  0.43875000  0.00000000
C        C    0.06125000  0.72747000  0.19979000  0.00000000
C        C    0.44979000  0.02253000  0.18875000  0.00000000
C        C    0.77253000  0.19979000  0.93875000  0.00000000
C        C    0.27253000  0.30021000  0.06125000  0.00000000
C        C    0.94979000  0.47747000  0.81125000  0.00000000
C        C    0.93875000  0.22747000  0.30021000  0.00000000
C        C    0.97747000  0.68875000  0.05021000  0.00000000
C        C    0.06125000  0.27253000  0.30021000  0.00000000
C        C    0.97747000  0.31125000  0.44979000  0.00000000
C        C    0.52253000  0.68875000  0.94979000  0.00000000
C        C    0.93875000  0.77253000  0.19979000  0.00000000
C        C    0.72747000  0.80021000  0.43875000  0.00000000
C        C    0.43875000  0.72747000  0.80021000  0.00000000
C        C    0.55021000  0.47747000  0.18875000  0.00000000
C        C    0.68875000  0.94979000  0.52253000  0.00000000
C        C    0.77253000  0.80021000  0.56125000  0.00000000
C        C    0.23467000  0.73011000  0.59921000  0.00000000
C        C    0.48467000  0.84921000  0.98011000  0.00000000
C        C    0.23467000  0.26989000  0.90079000  0.00000000
C        C    0.01989000  0.98467000  0.65079000  0.00000000
C        C    0.01533000  0.15079000  0.48011000  0.00000000
C        C    0.73011000  0.59921000  0.23467000  0.00000000
C        C    0.98011000  0.51533000  0.65079000  0.00000000
C        C    0.48467000  0.15079000  0.51989000  0.00000000
C        C    0.40079000  0.26533000  0.73011000  0.00000000
C        C    0.23011000  0.09921000  0.73467000  0.00000000
C        C    0.59921000  0.76533000  0.76989000  0.00000000
C        C    0.76989000  0.59921000  0.76533000  0.00000000
C        C    0.26989000  0.09921000  0.26533000  0.00000000
C        C    0.73467000  0.23011000  0.09921000  0.00000000
C        C    0.26989000  0.90079000  0.23467000  0.00000000
C        C    0.15079000  0.51989000  0.48467000  0.00000000
C        C    0.65079000  0.01989000  0.98467000  0.00000000
C        C    0.51989000  0.51533000  0.34921000  0.00000000
C        C    0.73011000  0.40079000  0.26533000  0.00000000
C        C    0.23011000  0.90079000  0.76533000  0.00000000
C        C    0.51533000  0.34921000  0.51989000  0.00000000
C        C    0.84921000  0.98011000  0.48467000  0.00000000
C        C    0.01989000  0.01533000  0.84921000  0.00000000
C        C    0.59921000  0.23467000  0.73011000  0.00000000
C        C    0.48011000  0.98467000  0.34921000  0.00000000
C        C    0.34921000  0.48011000  0.98467000  0.00000000
C        C    0.01533000  0.84921000  0.01989000  0.00000000
C        C    0.15079000  0.48011000  0.01533000  0.00000000
C        C    0.34921000  0.51989000  0.51533000  0.00000000
C        C    0.76989000  0.40079000  0.73467000  0.00000000
C        C    0.84921000  0.01989000  0.01533000  0.00000000
C        C    0.26533000  0.73011000  0.40079000  0.00000000
C        C    0.09921000  0.73467000  0.23011000  0.00000000
C        C    0.48011000  0.01533000  0.15079000  0.00000000
C        C    0.76533000  0.23011000  0.90079000  0.00000000
C        C    0.26533000  0.26989000  0.09921000  0.00000000
C        C    0.98011000  0.48467000  0.84921000  0.00000000
C        C    0.90079000  0.23467000  0.26989000  0.00000000
C        C    0.98467000  0.65079000  0.01989000  0.00000000
C        C    0.09921000  0.26533000  0.26989000  0.00000000
C        C    0.98467000  0.34921000  0.48011000  0.00000000
C        C    0.51533000  0.65079000  0.98011000  0.00000000
C        C    0.90079000  0.76533000  0.23011000  0.00000000
C        C    0.73467000  0.76989000  0.40079000  0.00000000
C        C    0.40079000  0.73467000  0.76989000  0.00000000
C        C    0.51989000  0.48467000  0.15079000  0.00000000
C        C    0.65079000  0.98011000  0.51533000  0.00000000
C        C    0.76533000  0.76989000  0.59921000  0.00000000
C        C    0.27451000  0.72504000  0.62788000  0.00000000
C        C    0.52451000  0.87788000  0.97504000  0.00000000
C        C    0.27451000  0.27496000  0.87212000  0.00000000
C        C    0.02496000  0.02451000  0.62212000  0.00000000
C        C    0.97549000  0.12212000  0.47504000  0.00000000
C        C    0.72504000  0.62788000  0.27451000  0.00000000
C        C    0.97504000  0.47549000  0.62212000  0.00000000
C        C    0.52451000  0.12212000  0.52496000  0.00000000
C        C    0.37212000  0.22549000  0.72504000  0.00000000
C        C    0.22504000  0.12788000  0.77451000  0.00000000
C        C    0.62788000  0.72549000  0.77496000  0.00000000
C        C    0.77496000  0.62788000  0.72549000  0.00000000
C        C    0.27496000  0.12788000  0.22549000  0.00000000
C        C    0.77451000  0.22504000  0.12788000  0.00000000
C        C    0.27496000  0.87212000  0.27451000  0.00000000
C        C    0.12212000  0.52496000  0.52451000  0.00000000
C        C    0.62212000  0.02496000  0.02451000  0.00000000
C        C    0.52496000  0.47549000  0.37788000  0.00000000
C        C    0.72504000  0.37212000  0.22549000  0.00000000
C        C    0.22504000  0.87212000  0.72549000  0.00000000
C        C    0.47549000  0.37788000  0.52496000  0.00000000
C        C    0.87788000  0.97504000  0.52451000  0.00000000
C        C    0.02496000  0.97549000  0.87788000  0.00000000
C        C    0.62788000  0.27451000  0.72504000  0.00000000
C        C    0.47504000  0.02451000  0.37788000  0.00000000
C        C    0.37788000  0.47504000  0.02451000  0.00000000
C        C    0.97549000  0.87788000  0.02496000  0.00000000
C        C    0.12212000  0.47504000  0.97549000  0.00000000
C        C    0.37788000  0.52496000  0.47549000  0.00000000
C        C    0.77496000  0.37212000  0.77451000  0.00000000
C        C    0.87788000  0.02496000  0.97549000  0.00000000
C        C    0.22549000  0.72504000  0.37212000  0.00000000
C        C    0.12788000  0.77451000  0.22504000  0.00000000
C        C    0.47504000  0.97549000  0.12212000  0.00000000
C        C    0.72549000  0.22504000  0.87212000  0.00000000
C        C    0.22549000  0.27496000  0.12788000  0.00000000
C        C    0.97504000  0.52451000  0.87788000  0.00000000
C        C    0.87212000  0.27451000  0.27496000  0.00000000
C        C    0.02451000  0.62212000  0.02496000  0.00000000
C        C    0.12788000  0.22549000  0.27496000  0.00000000
C        C    0.02451000  0.37788000  0.47504000  0.00000000
C        C    0.47549000  0.62212000  0.97504000  0.00000000
C        C    0.87212000  0.72549000  0.22504000  0.00000000
C        C    0.77451000  0.77496000  0.37212000  0.00000000
C        C    0.37212000  0.77451000  0.77496000  0.00000000
C        C    0.52496000  0.52451000  0.12212000  0.00000000
C        C    0.62212000  0.97504000  0.47549000  0.00000000
C        C    0.72549000  0.77496000  0.62788000  0.00000000
C        C    0.30710000  0.68938000  0.61783000  0.00000000
C        C    0.55710000  0.86783000  0.93938000  0.00000000
C        C    0.30710000  0.31062000  0.88217000  0.00000000
C        C    0.06062000  0.05710000  0.63217000  0.00000000
C        C    0.94290000  0.13217000  0.43938000  0.00000000
C        C    0.68938000  0.61783000  0.30710000  0.00000000
C        C    0.93938000  0.44290000  0.63217000  0.00000000
C        C    0.55710000  0.13217000  0.56062000  0.00000000
C        C    0.38217000  0.19290000  0.68938000  0.00000000
C        C    0.18938000  0.11783000  0.80710000  0.00000000
C        C    0.61783000  0.69290000  0.81062000  0.00000000
C        C    0.81062000  0.61783000  0.69290000  0.00000000
C        C    0.31062000  0.11783000  0.19290000  0.00000000
C        C    0.80710000  0.18938000  0.11783000  0.00000000
C        C    0.31062000  0.88217000  0.30710000  0.00000000
C        C    0.13217000  0.56062000  0.55710000  0.00000000
C        C    0.63217000  0.06062000  0.05710000  0.00000000
C        C    0.56062000  0.44290000  0.36783000  0.00000000
C        C    0.68938000  0.38217000  0.19290000  0.00000000
C        C    0.18938000  0.88217000  0.69290000  0.00000000
C        C    0.44290000  0.36783000  0.56062000  0.00000000
C        C    0.86783000  0.93938000  0.55710000  0.00000000
C        C    0.06062000  0.94290000  0.86783000  0.00000000
C        C    0.61783000  0.30710000  0.68938000  0.00000000
C        C    0.43938000  0.05710000  0.36783000  0.00000000
C        C    0.36783000  0.43938000  0.05710000  0.00000000
C        C    0.94290000  0.86783000  0.06062000  0.00000000
C        C    0.13217000  0.43938000  0.94290000  0.00000000
C        C    0.36783000  0.56062000  0.44290000  0.00000000
C        C    0.81062000  0.38217000  0.80710000  0.00000000
C        C    0.86783000  0.06062000  0.94290000  0.00000000
C        C    0.19290000  0.68938000  0.38217000  0.00000000
C        C    0.11783000  0.80710000  0.18938000  0.00000000
C        C    0.43938000  0.94290000  0.13217000  0.00000000
C        C    0.69290000  0.18938000  0.88217000  0.00000000
C        C    0.19290000  0.31062000  0.11783000  0.00000000
C        C    0.93938000  0.55710000  0.86783000  0.00000000
C        C    0.88217000  0.30710000  0.31062000  0.00000000
C        C    0.05710000  0.63217000  0.06062000  0.00000000
C        C    0.11783000  0.19290000  0.31062000  0.00000000
C        C    0.05710000  0.36783000  0.43938000  0.00000000
C        C    0.44290000  0.63217000  0.93938000  0.00000000
C        C    0.88217000  0.69290000  0.18938000  0.00000000
C        C    0.80710000  0.81062000  0.38217000  0.00000000
C        C    0.38217000  0.80710000  0.81062000  0.00000000
C        C    0.56062000  0.55710000  0.13217000  0.00000000
C        C    0.63217000  0.93938000  0.44290000  0.00000000
C        C    0.69290000  0.81062000  0.61783000  0.00000000
Si       Si   0.12500000  0.00000000  0.75000000  0.00000000
Si       Si   0.50000000  0.25000000  0.62500000  0.00000000
Si       Si   0.25000000  0.62500000  0.50000000  0.00000000
Si       Si   0.37500000  0.00000000  0.25000000  0.00000000
Si       Si   0.75000000  0.12500000  0.00000000  0.00000000
Si       Si   0.25000000  0.37500000  0.00000000  0.00000000
Si       Si   0.87500000  0.50000000  0.75000000  0.00000000
Si       Si   0.00000000  0.25000000  0.37500000  0.00000000
Si       Si   0.00000000  0.75000000  0.12500000  0.00000000
Si       Si   0.50000000  0.75000000  0.87500000  0.00000000
Si       Si   0.62500000  0.50000000  0.25000000  0.00000000
Si       Si   0.75000000  0.87500000  0.50000000  0.00000000
H        H    0.32593000  0.63252000  0.57242000  0.00000000
H        H    0.57593000  0.82242000  0.88252000  0.00000000
H        H    0.32593000  0.36748000  0.92758000  0.00000000
H        H    0.11748000  0.07593000  0.67758000  0.00000000
H        H    0.92407000  0.17758000  0.38252000  0.00000000
H        H    0.63252000  0.57242000  0.32593000  0.00000000
H        H    0.88252000  0.42407000  0.67758000  0.00000000
H        H    0.57593000  0.17758000  0.61748000  0.00000000
H        H    0.42758000  0.17407000  0.63252000  0.00000000
H        H    0.13252000  0.07242000  0.82593000  0.00000000
H        H    0.57242000  0.67407000  0.86748000  0.00000000
H        H    0.86748000  0.57242000  0.67407000  0.00000000
H        H    0.36748000  0.07242000  0.17407000  0.00000000
H        H    0.82593000  0.13252000  0.07242000  0.00000000
H        H    0.36748000  0.92758000  0.32593000  0.00000000
H        H    0.17758000  0.61748000  0.57593000  0.00000000
H        H    0.67758000  0.11748000  0.07593000  0.00000000
H        H    0.61748000  0.42407000  0.32242000  0.00000000
H        H    0.63252000  0.42758000  0.17407000  0.00000000
H        H    0.13252000  0.92758000  0.67407000  0.00000000
H        H    0.42407000  0.32242000  0.61748000  0.00000000
H        H    0.82242000  0.88252000  0.57593000  0.00000000
H        H    0.11748000  0.92407000  0.82242000  0.00000000
H        H    0.57242000  0.32593000  0.63252000  0.00000000
H        H    0.38252000  0.07593000  0.32242000  0.00000000
H        H    0.32242000  0.38252000  0.07593000  0.00000000
H        H    0.92407000  0.82242000  0.11748000  0.00000000
H        H    0.17758000  0.38252000  0.92407000  0.00000000
H        H    0.32242000  0.61748000  0.42407000  0.00000000
H        H    0.86748000  0.42758000  0.82593000  0.00000000
H        H    0.82242000  0.11748000  0.92407000  0.00000000
H        H    0.17407000  0.63252000  0.42758000  0.00000000
H        H    0.07242000  0.82593000  0.13252000  0.00000000
H        H    0.38252000  0.92407000  0.17758000  0.00000000
H        H    0.67407000  0.13252000  0.92758000  0.00000000
H        H    0.17407000  0.36748000  0.07242000  0.00000000
H        H    0.88252000  0.57593000  0.82242000  0.00000000
H        H    0.92758000  0.32593000  0.36748000  0.00000000
H        H    0.07593000  0.67758000  0.11748000  0.00000000
H        H    0.07242000  0.17407000  0.36748000  0.00000000
H        H    0.07593000  0.32242000  0.38252000  0.00000000
H        H    0.42407000  0.67758000  0.88252000  0.00000000
H        H    0.92758000  0.67407000  0.13252000  0.00000000
H        H    0.82593000  0.86748000  0.42758000  0.00000000
H        H    0.42758000  0.82593000  0.86748000  0.00000000
H        H    0.61748000  0.57593000  0.17758000  0.00000000
H        H    0.67758000  0.88252000  0.42407000  0.00000000
H        H    0.67407000  0.86748000  0.57242000  0.00000000
H        H    0.19655000  0.70425000  0.53949000  0.00000000
H        H    0.44655000  0.78949000  0.95425000  0.00000000
H        H    0.19655000  0.29575000  0.96051000  0.00000000
H        H    0.04575000  0.94655000  0.71051000  0.00000000
H        H    0.05345000  0.21051000  0.45425000  0.00000000
H        H    0.70425000  0.53949000  0.19655000  0.00000000
H        H    0.95425000  0.55345000  0.71051000  0.00000000
H        H    0.44655000  0.21051000  0.54575000  0.00000000
H        H    0.46051000  0.30345000  0.70425000  0.00000000
H        H    0.20425000  0.03949000  0.69655000  0.00000000
H        H    0.53949000  0.80345000  0.79575000  0.00000000
H        H    0.79575000  0.53949000  0.80345000  0.00000000
H        H    0.29575000  0.03949000  0.30345000  0.00000000
H        H    0.69655000  0.20425000  0.03949000  0.00000000
H        H    0.29575000  0.96051000  0.19655000  0.00000000
H        H    0.21051000  0.54575000  0.44655000  0.00000000
H        H    0.71051000  0.04575000  0.94655000  0.00000000
H        H    0.54575000  0.55345000  0.28949000  0.00000000
H        H    0.70425000  0.46051000  0.30345000  0.00000000
H        H    0.20425000  0.96051000  0.80345000  0.00000000
H        H    0.55345000  0.28949000  0.54575000  0.00000000
H        H    0.78949000  0.95425000  0.44655000  0.00000000
H        H    0.04575000  0.05345000  0.78949000  0.00000000
H        H    0.53949000  0.19655000  0.70425000  0.00000000
H        H    0.45425000  0.94655000  0.28949000  0.00000000
H        H    0.28949000  0.45425000  0.94655000  0.00000000
H        H    0.05345000  0.78949000  0.04575000  0.00000000
H        H    0.21051000  0.45425000  0.05345000  0.00000000
H        H    0.28949000  0.54575000  0.55345000  0.00000000
H        H    0.79575000  0.46051000  0.69655000  0.00000000
H        H    0.78949000  0.04575000  0.05345000  0.00000000
H        H    0.30345000  0.70425000  0.46051000  0.00000000
H        H    0.03949000  0.69655000  0.20425000  0.00000000
H        H    0.45425000  0.05345000  0.21051000  0.00000000
H        H    0.80345000  0.20425000  0.96051000  0.00000000
H        H    0.30345000  0.29575000  0.03949000  0.00000000
H        H    0.95425000  0.44655000  0.78949000  0.00000000
H        H    0.96051000  0.19655000  0.29575000  0.00000000
H        H    0.94655000  0.71051000  0.04575000  0.00000000
H        H    0.03949000  0.30345000  0.29575000  0.00000000
H        H    0.94655000  0.28949000  0.45425000  0.00000000
H        H    0.55345000  0.71051000  0.95425000  0.00000000
H        H    0.96051000  0.80345000  0.20425000  0.00000000
H        H    0.69655000  0.79575000  0.46051000  0.00000000
H        H    0.46051000  0.69655000  0.79575000  0.00000000
H        H    0.54575000  0.44655000  0.21051000  0.00000000
H        H    0.71051000  0.95425000  0.55345000  0.00000000
H        H    0.80345000  0.79575000  0.53949000  0.00000000
H        H    0.20900000  0.75737000  0.60607000  0.00000000
H        H    0.45900000  0.85607000  0.00737000  0.00000000
H        H    0.20900000  0.24263000  0.89393000  0.00000000
H        H    0.99263000  0.95900000  0.64393000  0.00000000
H        H    0.04100000  0.14393000  0.50737000  0.00000000
H        H    0.75737000  0.60607000  0.20900000  0.00000000
H        H    0.00737000  0.54100000  0.64393000  0.00000000
H        H    0.45900000  0.14393000  0.49263000  0.00000000
H        H    0.39393000  0.29100000  0.75737000  0.00000000
H        H    0.25737000  0.10607000  0.70900000  0.00000000
H        H    0.60607000  0.79100000  0.74263000  0.00000000
H        H    0.74263000  0.60607000  0.79100000  0.00000000
H        H    0.24263000  0.10607000  0.29100000  0.00000000
H        H    0.70900000  0.25737000  0.10607000  0.00000000
H        H    0.24263000  0.89393000  0.20900000  0.00000000
H        H    0.14393000  0.49263000  0.45900000  0.00000000
H        H    0.64393000  0.99263000  0.95900000  0.00000000
H        H    0.49263000  0.54100000  0.35607000  0.00000000
H        H    0.75737000  0.39393000  0.29100000  0.00000000
H        H    0.25737000  0.89393000  0.79100000  0.00000000
H        H    0.54100000  0.35607000  0.49263000  0.00000000
H        H    0.85607000  0.00737000  0.45900000  0.00000000
H        H    0.99263000  0.04100000  0.85607000  0.00000000
H        H    0.60607000  0.20900000  0.75737000  0.00000000
H        H    0.50737000  0.95900000  0.35607000  0.00000000
H        H    0.35607000  0.50737000  0.95900000  0.00000000
H        H    0.04100000  0.85607000  0.99263000  0.00000000
H        H    0.14393000  0.50737000  0.04100000  0.00000000
H        H    0.35607000  0.49263000  0.54100000  0.00000000
H        H    0.74263000  0.39393000  0.70900000  0.00000000
H        H    0.85607000  0.99263000  0.04100000  0.00000000
H        H    0.29100000  0.75737000  0.39393000  0.00000000
H        H    0.10607000  0.70900000  0.25737000  0.00000000
H        H    0.50737000  0.04100000  0.14393000  0.00000000
H        H    0.79100000  0.25737000  0.89393000  0.00000000
H        H    0.29100000  0.24263000  0.10607000  0.00000000
H        H    0.00737000  0.45900000  0.85607000  0.00000000
H        H    0.89393000  0.20900000  0.24263000  0.00000000
H        H    0.95900000  0.64393000  0.99263000  0.00000000
H        H    0.10607000  0.29100000  0.24263000  0.00000000
H        H    0.95900000  0.35607000  0.50737000  0.00000000
H        H    0.54100000  0.64393000  0.00737000  0.00000000
H        H    0.89393000  0.79100000  0.25737000  0.00000000
H        H    0.70900000  0.74263000  0.39393000  0.00000000
H        H    0.39393000  0.70900000  0.74263000  0.00000000
H        H    0.49263000  0.45900000  0.14393000  0.00000000
H        H    0.64393000  0.00737000  0.54100000  0.00000000
H        H    0.79100000  0.74263000  0.60607000  0.00000000
H        H    0.33829000  0.68483000  0.63920000  0.00000000
H        H    0.58829000  0.88920000  0.93483000  0.00000000
H        H    0.33829000  0.31517000  0.86080000  0.00000000
H        H    0.06517000  0.08829000  0.61080000  0.00000000
H        H    0.91171000  0.11080000  0.43483000  0.00000000
H        H    0.68483000  0.63920000  0.33829000  0.00000000
H        H    0.93483000  0.41171000  0.61080000  0.00000000
H        H    0.58829000  0.11080000  0.56517000  0.00000000
H        H    0.36080000  0.16171000  0.68483000  0.00000000
H        H    0.18483000  0.13920000  0.83829000  0.00000000
H        H    0.63920000  0.66171000  0.81517000  0.00000000
H        H    0.81517000  0.63920000  0.66171000  0.00000000
H        H    0.31517000  0.13920000  0.16171000  0.00000000
H        H    0.83829000  0.18483000  0.13920000  0.00000000
H        H    0.31517000  0.86080000  0.33829000  0.00000000
H        H    0.11080000  0.56517000  0.58829000  0.00000000
H        H    0.61080000  0.06517000  0.08829000  0.00000000
H        H    0.56517000  0.41171000  0.38920000  0.00000000
H        H    0.68483000  0.36080000  0.16171000  0.00000000
H        H    0.18483000  0.86080000  0.66171000  0.00000000
H        H    0.41171000  0.38920000  0.56517000  0.00000000
H        H    0.88920000  0.93483000  0.58829000  0.00000000
H        H    0.06517000  0.91171000  0.88920000  0.00000000
H        H    0.63920000  0.33829000  0.68483000  0.00000000
H        H    0.43483000  0.08829000  0.38920000  0.00000000
H        H    0.38920000  0.43483000  0.08829000  0.00000000
H        H    0.91171000  0.88920000  0.06517000  0.00000000
H        H    0.11080000  0.43483000  0.91171000  0.00000000
H        H    0.38920000  0.56517000  0.41171000  0.00000000
H        H    0.81517000  0.36080000  0.83829000  0.00000000
H        H    0.88920000  0.06517000  0.91171000  0.00000000
H        H    0.16171000  0.68483000  0.36080000  0.00000000
H        H    0.13920000  0.83829000  0.18483000  0.00000000
H        H    0.43483000  0.91171000  0.11080000  0.00000000
H        H    0.66171000  0.18483000  0.86080000  0.00000000
H        H    0.16171000  0.31517000  0.13920000  0.00000000
H        H    0.93483000  0.58829000  0.88920000  0.00000000
H        H    0.86080000  0.33829000  0.31517000  0.00000000
H        H    0.08829000  0.61080000  0.06517000  0.00000000
H        H    0.13920000  0.16171000  0.31517000  0.00000000
H        H    0.08829000  0.38920000  0.43483000  0.00000000
H        H    0.41171000  0.61080000  0.93483000  0.00000000
H        H    0.86080000  0.66171000  0.18483000  0.00000000
H        H    0.83829000  0.81517000  0.36080000  0.00000000
H        H    0.36080000  0.83829000  0.81517000  0.00000000
H        H    0.56517000  0.58829000  0.11080000  0.00000000
H        H    0.61080000  0.93483000  0.41171000  0.00000000
H        H    0.66171000  0.81517000  0.63920000  0.00000000
