data_COF-102

_cell_length_a  27.17710000
_cell_length_b  27.17710000
_cell_length_c  27.17710000
_cell_angle_alpha  90.00000000
_cell_angle_beta  90.00000000
_cell_angle_gamma  90.00000000


_symmetry_space_group_name_Hall ' P 1'
_symmetry_space_group_name_H-M  'P 1'
_symmetry_Int_Tables_number     1

loop_
_atom_site_label
_atom_site_type_symbol
_atom_site_fract_x
_atom_site_fract_y
_atom_site_fract_z
_atom_site_charge
O        O    0.19702000  0.17150000  0.24693000  0.00000000
O        O    0.44702000  0.49693000  0.42150000  0.00000000
O        O    0.19702000  0.82850000  0.25307000  0.00000000
O        O    0.57850000  0.94702000  0.00307000  0.00000000
O        O    0.05298000  0.50307000  0.92150000  0.00000000
O        O    0.17150000  0.24693000  0.19702000  0.00000000
O        O    0.42150000  0.55298000  0.00307000  0.00000000
O        O    0.44702000  0.50307000  0.07850000  0.00000000
O        O    0.75307000  0.30298000  0.17150000  0.00000000
O        O    0.67150000  0.74693000  0.69702000  0.00000000
O        O    0.24693000  0.80298000  0.32850000  0.00000000
O        O    0.32850000  0.24693000  0.80298000  0.00000000
O        O    0.82850000  0.74693000  0.30298000  0.00000000
O        O    0.69702000  0.67150000  0.74693000  0.00000000
O        O    0.82850000  0.25307000  0.19702000  0.00000000
O        O    0.50307000  0.07850000  0.44702000  0.00000000
O        O    0.00307000  0.57850000  0.94702000  0.00000000
O        O    0.07850000  0.55298000  0.99693000  0.00000000
O        O    0.17150000  0.75307000  0.30298000  0.00000000
O        O    0.67150000  0.25307000  0.80298000  0.00000000
O        O    0.55298000  0.99693000  0.07850000  0.00000000
O        O    0.49693000  0.42150000  0.44702000  0.00000000
O        O    0.57850000  0.05298000  0.49693000  0.00000000
O        O    0.24693000  0.19702000  0.17150000  0.00000000
O        O    0.92150000  0.94702000  0.99693000  0.00000000
O        O    0.99693000  0.92150000  0.94702000  0.00000000
O        O    0.05298000  0.49693000  0.57850000  0.00000000
O        O    0.50307000  0.92150000  0.05298000  0.00000000
O        O    0.99693000  0.07850000  0.55298000  0.00000000
O        O    0.32850000  0.75307000  0.69702000  0.00000000
O        O    0.49693000  0.57850000  0.05298000  0.00000000
O        O    0.30298000  0.17150000  0.75307000  0.00000000
O        O    0.74693000  0.69702000  0.67150000  0.00000000
O        O    0.92150000  0.05298000  0.50307000  0.00000000
O        O    0.80298000  0.67150000  0.25307000  0.00000000
O        O    0.30298000  0.82850000  0.74693000  0.00000000
O        O    0.42150000  0.44702000  0.49693000  0.00000000
O        O    0.25307000  0.19702000  0.82850000  0.00000000
O        O    0.94702000  0.00307000  0.57850000  0.00000000
O        O    0.74693000  0.30298000  0.82850000  0.00000000
O        O    0.94702000  0.99693000  0.92150000  0.00000000
O        O    0.55298000  0.00307000  0.42150000  0.00000000
O        O    0.25307000  0.80298000  0.67150000  0.00000000
O        O    0.69702000  0.32850000  0.75307000  0.00000000
O        O    0.75307000  0.69702000  0.32850000  0.00000000
O        O    0.07850000  0.44702000  0.50307000  0.00000000
O        O    0.00307000  0.42150000  0.55298000  0.00000000
O        O    0.80298000  0.32850000  0.24693000  0.00000000
B        B    0.23784000  0.16467000  0.21325000  0.00000000
B        B    0.48784000  0.46325000  0.41467000  0.00000000
B        B    0.23784000  0.83533000  0.28675000  0.00000000
B        B    0.58533000  0.98784000  0.03675000  0.00000000
B        B    0.01216000  0.53675000  0.91467000  0.00000000
B        B    0.16467000  0.21325000  0.23784000  0.00000000
B        B    0.41467000  0.51216000  0.03675000  0.00000000
B        B    0.48784000  0.53675000  0.08533000  0.00000000
B        B    0.78675000  0.26216000  0.16467000  0.00000000
B        B    0.66467000  0.71325000  0.73784000  0.00000000
B        B    0.21325000  0.76216000  0.33533000  0.00000000
B        B    0.33533000  0.21325000  0.76216000  0.00000000
B        B    0.83533000  0.71325000  0.26216000  0.00000000
B        B    0.73784000  0.66467000  0.71325000  0.00000000
B        B    0.83533000  0.28675000  0.23784000  0.00000000
B        B    0.53675000  0.08533000  0.48784000  0.00000000
B        B    0.03675000  0.58533000  0.98784000  0.00000000
B        B    0.08533000  0.51216000  0.96325000  0.00000000
B        B    0.16467000  0.78675000  0.26216000  0.00000000
B        B    0.66467000  0.28675000  0.76216000  0.00000000
B        B    0.51216000  0.96325000  0.08533000  0.00000000
B        B    0.46325000  0.41467000  0.48784000  0.00000000
B        B    0.58533000  0.01216000  0.46325000  0.00000000
B        B    0.21325000  0.23784000  0.16467000  0.00000000
B        B    0.91467000  0.98784000  0.96325000  0.00000000
B        B    0.96325000  0.91467000  0.98784000  0.00000000
B        B    0.01216000  0.46325000  0.58533000  0.00000000
B        B    0.53675000  0.91467000  0.01216000  0.00000000
B        B    0.96325000  0.08533000  0.51216000  0.00000000
B        B    0.33533000  0.78675000  0.73784000  0.00000000
B        B    0.46325000  0.58533000  0.01216000  0.00000000
B        B    0.26216000  0.16467000  0.78675000  0.00000000
B        B    0.71325000  0.73784000  0.66467000  0.00000000
B        B    0.91467000  0.01216000  0.53675000  0.00000000
B        B    0.76216000  0.66467000  0.28675000  0.00000000
B        B    0.26216000  0.83533000  0.71325000  0.00000000
B        B    0.41467000  0.48784000  0.46325000  0.00000000
B        B    0.28675000  0.23784000  0.83533000  0.00000000
B        B    0.98784000  0.03675000  0.58533000  0.00000000
B        B    0.71325000  0.26216000  0.83533000  0.00000000
B        B    0.98784000  0.96325000  0.91467000  0.00000000
B        B    0.51216000  0.03675000  0.41467000  0.00000000
B        B    0.28675000  0.76216000  0.66467000  0.00000000
B        B    0.73784000  0.33533000  0.78675000  0.00000000
B        B    0.78675000  0.73784000  0.33533000  0.00000000
B        B    0.08533000  0.48784000  0.53675000  0.00000000
B        B    0.03675000  0.41467000  0.51216000  0.00000000
B        B    0.76216000  0.33533000  0.21325000  0.00000000
C        C    0.27242000  0.09510000  0.26629000  0.00000000
C        C    0.52242000  0.51629000  0.34510000  0.00000000
C        C    0.27242000  0.90490000  0.23371000  0.00000000
C        C    0.65490000  0.02242000  0.98371000  0.00000000
C        C    0.97758000  0.48371000  0.84510000  0.00000000
C        C    0.09510000  0.26629000  0.27242000  0.00000000
C        C    0.34510000  0.47758000  0.98371000  0.00000000
C        C    0.52242000  0.48371000  0.15490000  0.00000000
C        C    0.73371000  0.22758000  0.09510000  0.00000000
C        C    0.59510000  0.76629000  0.77242000  0.00000000
C        C    0.26629000  0.72758000  0.40490000  0.00000000
C        C    0.40490000  0.26629000  0.72758000  0.00000000
C        C    0.90490000  0.76629000  0.22758000  0.00000000
C        C    0.77242000  0.59510000  0.76629000  0.00000000
C        C    0.90490000  0.23371000  0.27242000  0.00000000
C        C    0.48371000  0.15490000  0.52242000  0.00000000
C        C    0.98371000  0.65490000  0.02242000  0.00000000
C        C    0.15490000  0.47758000  0.01629000  0.00000000
C        C    0.09510000  0.73371000  0.22758000  0.00000000
C        C    0.59510000  0.23371000  0.72758000  0.00000000
C        C    0.47758000  0.01629000  0.15490000  0.00000000
C        C    0.51629000  0.34510000  0.52242000  0.00000000
C        C    0.65490000  0.97758000  0.51629000  0.00000000
C        C    0.26629000  0.27242000  0.09510000  0.00000000
C        C    0.84510000  0.02242000  0.01629000  0.00000000
C        C    0.01629000  0.84510000  0.02242000  0.00000000
C        C    0.97758000  0.51629000  0.65490000  0.00000000
C        C    0.48371000  0.84510000  0.97758000  0.00000000
C        C    0.01629000  0.15490000  0.47758000  0.00000000
C        C    0.40490000  0.73371000  0.77242000  0.00000000
C        C    0.51629000  0.65490000  0.97758000  0.00000000
C        C    0.22758000  0.09510000  0.73371000  0.00000000
C        C    0.76629000  0.77242000  0.59510000  0.00000000
C        C    0.84510000  0.97758000  0.48371000  0.00000000
C        C    0.72758000  0.59510000  0.23371000  0.00000000
C        C    0.22758000  0.90490000  0.76629000  0.00000000
C        C    0.34510000  0.52242000  0.51629000  0.00000000
C        C    0.23371000  0.27242000  0.90490000  0.00000000
C        C    0.02242000  0.98371000  0.65490000  0.00000000
C        C    0.76629000  0.22758000  0.90490000  0.00000000
C        C    0.02242000  0.01629000  0.84510000  0.00000000
C        C    0.47758000  0.98371000  0.34510000  0.00000000
C        C    0.23371000  0.72758000  0.59510000  0.00000000
C        C    0.77242000  0.40490000  0.73371000  0.00000000
C        C    0.73371000  0.77242000  0.40490000  0.00000000
C        C    0.15490000  0.52242000  0.48371000  0.00000000
C        C    0.98371000  0.34510000  0.47758000  0.00000000
C        C    0.72758000  0.40490000  0.26629000  0.00000000
C        C    0.27370000  0.12106000  0.22231000  0.00000000
C        C    0.52370000  0.47231000  0.37106000  0.00000000
C        C    0.27370000  0.87894000  0.27769000  0.00000000
C        C    0.62894000  0.02370000  0.02769000  0.00000000
C        C    0.97630000  0.52769000  0.87106000  0.00000000
C        C    0.12106000  0.22231000  0.27370000  0.00000000
C        C    0.37106000  0.47630000  0.02769000  0.00000000
C        C    0.52370000  0.52769000  0.12894000  0.00000000
C        C    0.77769000  0.22630000  0.12106000  0.00000000
C        C    0.62106000  0.72231000  0.77370000  0.00000000
C        C    0.22231000  0.72630000  0.37894000  0.00000000
C        C    0.37894000  0.22231000  0.72630000  0.00000000
C        C    0.87894000  0.72231000  0.22630000  0.00000000
C        C    0.77370000  0.62106000  0.72231000  0.00000000
C        C    0.87894000  0.27769000  0.27370000  0.00000000
C        C    0.52769000  0.12894000  0.52370000  0.00000000
C        C    0.02769000  0.62894000  0.02370000  0.00000000
C        C    0.12894000  0.47630000  0.97231000  0.00000000
C        C    0.12106000  0.77769000  0.22630000  0.00000000
C        C    0.62106000  0.27769000  0.72630000  0.00000000
C        C    0.47630000  0.97231000  0.12894000  0.00000000
C        C    0.47231000  0.37106000  0.52370000  0.00000000
C        C    0.62894000  0.97630000  0.47231000  0.00000000
C        C    0.22231000  0.27370000  0.12106000  0.00000000
C        C    0.87106000  0.02370000  0.97231000  0.00000000
C        C    0.97231000  0.87106000  0.02370000  0.00000000
C        C    0.97630000  0.47231000  0.62894000  0.00000000
C        C    0.52769000  0.87106000  0.97630000  0.00000000
C        C    0.97231000  0.12894000  0.47630000  0.00000000
C        C    0.37894000  0.77769000  0.77370000  0.00000000
C        C    0.47231000  0.62894000  0.97630000  0.00000000
C        C    0.22630000  0.12106000  0.77769000  0.00000000
C        C    0.72231000  0.77370000  0.62106000  0.00000000
C        C    0.87106000  0.97630000  0.52769000  0.00000000
C        C    0.72630000  0.62106000  0.27769000  0.00000000
C        C    0.22630000  0.87894000  0.72231000  0.00000000
C        C    0.37106000  0.52370000  0.47231000  0.00000000
C        C    0.27769000  0.27370000  0.87894000  0.00000000
C        C    0.02370000  0.02769000  0.62894000  0.00000000
C        C    0.72231000  0.22630000  0.87894000  0.00000000
C        C    0.02370000  0.97231000  0.87106000  0.00000000
C        C    0.47630000  0.02769000  0.37106000  0.00000000
C        C    0.27769000  0.72630000  0.62106000  0.00000000
C        C    0.77370000  0.37894000  0.77769000  0.00000000
C        C    0.77769000  0.77370000  0.37894000  0.00000000
C        C    0.12894000  0.52370000  0.52769000  0.00000000
C        C    0.02769000  0.37106000  0.47630000  0.00000000
C        C    0.72630000  0.37894000  0.22231000  0.00000000
C        C    0.33951000  0.06880000  0.19419000  0.00000000
C        C    0.58951000  0.44419000  0.31880000  0.00000000
C        C    0.33951000  0.93120000  0.30581000  0.00000000
C        C    0.68120000  0.08951000  0.05581000  0.00000000
C        C    0.91049000  0.55581000  0.81880000  0.00000000
C        C    0.06880000  0.19419000  0.33951000  0.00000000
C        C    0.31880000  0.41049000  0.05581000  0.00000000
C        C    0.58951000  0.55581000  0.18120000  0.00000000
C        C    0.80581000  0.16049000  0.06880000  0.00000000
C        C    0.56880000  0.69419000  0.83951000  0.00000000
C        C    0.19419000  0.66049000  0.43120000  0.00000000
C        C    0.43120000  0.19419000  0.66049000  0.00000000
C        C    0.93120000  0.69419000  0.16049000  0.00000000
C        C    0.83951000  0.56880000  0.69419000  0.00000000
C        C    0.93120000  0.30581000  0.33951000  0.00000000
C        C    0.55581000  0.18120000  0.58951000  0.00000000
C        C    0.05581000  0.68120000  0.08951000  0.00000000
C        C    0.18120000  0.41049000  0.94419000  0.00000000
C        C    0.06880000  0.80581000  0.16049000  0.00000000
C        C    0.56880000  0.30581000  0.66049000  0.00000000
C        C    0.41049000  0.94419000  0.18120000  0.00000000
C        C    0.44419000  0.31880000  0.58951000  0.00000000
C        C    0.68120000  0.91049000  0.44419000  0.00000000
C        C    0.19419000  0.33951000  0.06880000  0.00000000
C        C    0.81880000  0.08951000  0.94419000  0.00000000
C        C    0.94419000  0.81880000  0.08951000  0.00000000
C        C    0.91049000  0.44419000  0.68120000  0.00000000
C        C    0.55581000  0.81880000  0.91049000  0.00000000
C        C    0.94419000  0.18120000  0.41049000  0.00000000
C        C    0.43120000  0.80581000  0.83951000  0.00000000
C        C    0.44419000  0.68120000  0.91049000  0.00000000
C        C    0.16049000  0.06880000  0.80581000  0.00000000
C        C    0.69419000  0.83951000  0.56880000  0.00000000
C        C    0.81880000  0.91049000  0.55581000  0.00000000
C        C    0.66049000  0.56880000  0.30581000  0.00000000
C        C    0.16049000  0.93120000  0.69419000  0.00000000
C        C    0.31880000  0.58951000  0.44419000  0.00000000
C        C    0.30581000  0.33951000  0.93120000  0.00000000
C        C    0.08951000  0.05581000  0.68120000  0.00000000
C        C    0.69419000  0.16049000  0.93120000  0.00000000
C        C    0.08951000  0.94419000  0.81880000  0.00000000
C        C    0.41049000  0.05581000  0.31880000  0.00000000
C        C    0.30581000  0.66049000  0.56880000  0.00000000
C        C    0.83951000  0.43120000  0.80581000  0.00000000
C        C    0.80581000  0.83951000  0.43120000  0.00000000
C        C    0.18120000  0.58951000  0.55581000  0.00000000
C        C    0.05581000  0.31880000  0.41049000  0.00000000
C        C    0.66049000  0.43120000  0.19419000  0.00000000
C        C    0.34040000  0.04366000  0.23930000  0.00000000
C        C    0.59040000  0.48930000  0.29366000  0.00000000
C        C    0.34040000  0.95634000  0.26070000  0.00000000
C        C    0.70634000  0.09040000  0.01070000  0.00000000
C        C    0.90960000  0.51070000  0.79366000  0.00000000
C        C    0.04366000  0.23930000  0.34040000  0.00000000
C        C    0.29366000  0.40960000  0.01070000  0.00000000
C        C    0.59040000  0.51070000  0.20634000  0.00000000
C        C    0.76070000  0.15960000  0.04366000  0.00000000
C        C    0.54366000  0.73930000  0.84040000  0.00000000
C        C    0.23930000  0.65960000  0.45634000  0.00000000
C        C    0.45634000  0.23930000  0.65960000  0.00000000
C        C    0.95634000  0.73930000  0.15960000  0.00000000
C        C    0.84040000  0.54366000  0.73930000  0.00000000
C        C    0.95634000  0.26070000  0.34040000  0.00000000
C        C    0.51070000  0.20634000  0.59040000  0.00000000
C        C    0.01070000  0.70634000  0.09040000  0.00000000
C        C    0.20634000  0.40960000  0.98930000  0.00000000
C        C    0.04366000  0.76070000  0.15960000  0.00000000
C        C    0.54366000  0.26070000  0.65960000  0.00000000
C        C    0.40960000  0.98930000  0.20634000  0.00000000
C        C    0.48930000  0.29366000  0.59040000  0.00000000
C        C    0.70634000  0.90960000  0.48930000  0.00000000
C        C    0.23930000  0.34040000  0.04366000  0.00000000
C        C    0.79366000  0.09040000  0.98930000  0.00000000
C        C    0.98930000  0.79366000  0.09040000  0.00000000
C        C    0.90960000  0.48930000  0.70634000  0.00000000
C        C    0.51070000  0.79366000  0.90960000  0.00000000
C        C    0.98930000  0.20634000  0.40960000  0.00000000
C        C    0.45634000  0.76070000  0.84040000  0.00000000
C        C    0.48930000  0.70634000  0.90960000  0.00000000
C        C    0.15960000  0.04366000  0.76070000  0.00000000
C        C    0.73930000  0.84040000  0.54366000  0.00000000
C        C    0.79366000  0.90960000  0.51070000  0.00000000
C        C    0.65960000  0.54366000  0.26070000  0.00000000
C        C    0.15960000  0.95634000  0.73930000  0.00000000
C        C    0.29366000  0.59040000  0.48930000  0.00000000
C        C    0.26070000  0.34040000  0.95634000  0.00000000
C        C    0.09040000  0.01070000  0.70634000  0.00000000
C        C    0.73930000  0.15960000  0.95634000  0.00000000
C        C    0.09040000  0.98930000  0.79366000  0.00000000
C        C    0.40960000  0.01070000  0.29366000  0.00000000
C        C    0.26070000  0.65960000  0.54366000  0.00000000
C        C    0.84040000  0.45634000  0.76070000  0.00000000
C        C    0.76070000  0.84040000  0.45634000  0.00000000
C        C    0.20634000  0.59040000  0.51070000  0.00000000
C        C    0.01070000  0.29366000  0.40960000  0.00000000
C        C    0.65960000  0.45634000  0.23930000  0.00000000
C        C    0.30728000  0.10748000  0.18630000  0.00000000
C        C    0.55728000  0.43630000  0.35748000  0.00000000
C        C    0.30728000  0.89252000  0.31370000  0.00000000
C        C    0.64252000  0.05728000  0.06370000  0.00000000
C        C    0.94272000  0.56370000  0.85748000  0.00000000
C        C    0.10748000  0.18630000  0.30728000  0.00000000
C        C    0.35748000  0.44272000  0.06370000  0.00000000
C        C    0.55728000  0.56370000  0.14252000  0.00000000
C        C    0.81370000  0.19272000  0.10748000  0.00000000
C        C    0.60748000  0.68630000  0.80728000  0.00000000
C        C    0.18630000  0.69272000  0.39252000  0.00000000
C        C    0.39252000  0.18630000  0.69272000  0.00000000
C        C    0.89252000  0.68630000  0.19272000  0.00000000
C        C    0.80728000  0.60748000  0.68630000  0.00000000
C        C    0.89252000  0.31370000  0.30728000  0.00000000
C        C    0.56370000  0.14252000  0.55728000  0.00000000
C        C    0.06370000  0.64252000  0.05728000  0.00000000
C        C    0.14252000  0.44272000  0.93630000  0.00000000
C        C    0.10748000  0.81370000  0.19272000  0.00000000
C        C    0.60748000  0.31370000  0.69272000  0.00000000
C        C    0.44272000  0.93630000  0.14252000  0.00000000
C        C    0.43630000  0.35748000  0.55728000  0.00000000
C        C    0.64252000  0.94272000  0.43630000  0.00000000
C        C    0.18630000  0.30728000  0.10748000  0.00000000
C        C    0.85748000  0.05728000  0.93630000  0.00000000
C        C    0.93630000  0.85748000  0.05728000  0.00000000
C        C    0.94272000  0.43630000  0.64252000  0.00000000
C        C    0.56370000  0.85748000  0.94272000  0.00000000
C        C    0.93630000  0.14252000  0.44272000  0.00000000
C        C    0.39252000  0.81370000  0.80728000  0.00000000
C        C    0.43630000  0.64252000  0.94272000  0.00000000
C        C    0.19272000  0.10748000  0.81370000  0.00000000
C        C    0.68630000  0.80728000  0.60748000  0.00000000
C        C    0.85748000  0.94272000  0.56370000  0.00000000
C        C    0.69272000  0.60748000  0.31370000  0.00000000
C        C    0.19272000  0.89252000  0.68630000  0.00000000
C        C    0.35748000  0.55728000  0.43630000  0.00000000
C        C    0.31370000  0.30728000  0.89252000  0.00000000
C        C    0.05728000  0.06370000  0.64252000  0.00000000
C        C    0.68630000  0.19272000  0.89252000  0.00000000
C        C    0.05728000  0.93630000  0.85748000  0.00000000
C        C    0.44272000  0.06370000  0.35748000  0.00000000
C        C    0.31370000  0.69272000  0.60748000  0.00000000
C        C    0.80728000  0.39252000  0.81370000  0.00000000
C        C    0.81370000  0.80728000  0.39252000  0.00000000
C        C    0.14252000  0.55728000  0.56370000  0.00000000
C        C    0.06370000  0.35748000  0.44272000  0.00000000
C        C    0.69272000  0.39252000  0.18630000  0.00000000
C        C    0.30516000  0.05694000  0.27459000  0.00000000
C        C    0.55516000  0.52459000  0.30694000  0.00000000
C        C    0.30516000  0.94306000  0.22541000  0.00000000
C        C    0.69306000  0.05516000  0.97541000  0.00000000
C        C    0.94484000  0.47541000  0.80694000  0.00000000
C        C    0.05694000  0.27459000  0.30516000  0.00000000
C        C    0.30694000  0.44484000  0.97541000  0.00000000
C        C    0.55516000  0.47541000  0.19306000  0.00000000
C        C    0.72541000  0.19484000  0.05694000  0.00000000
C        C    0.55694000  0.77459000  0.80516000  0.00000000
C        C    0.27459000  0.69484000  0.44306000  0.00000000
C        C    0.44306000  0.27459000  0.69484000  0.00000000
C        C    0.94306000  0.77459000  0.19484000  0.00000000
C        C    0.80516000  0.55694000  0.77459000  0.00000000
C        C    0.94306000  0.22541000  0.30516000  0.00000000
C        C    0.47541000  0.19306000  0.55516000  0.00000000
C        C    0.97541000  0.69306000  0.05516000  0.00000000
C        C    0.19306000  0.44484000  0.02459000  0.00000000
C        C    0.05694000  0.72541000  0.19484000  0.00000000
C        C    0.55694000  0.22541000  0.69484000  0.00000000
C        C    0.44484000  0.02459000  0.19306000  0.00000000
C        C    0.52459000  0.30694000  0.55516000  0.00000000
C        C    0.69306000  0.94484000  0.52459000  0.00000000
C        C    0.27459000  0.30516000  0.05694000  0.00000000
C        C    0.80694000  0.05516000  0.02459000  0.00000000
C        C    0.02459000  0.80694000  0.05516000  0.00000000
C        C    0.94484000  0.52459000  0.69306000  0.00000000
C        C    0.47541000  0.80694000  0.94484000  0.00000000
C        C    0.02459000  0.19306000  0.44484000  0.00000000
C        C    0.44306000  0.72541000  0.80516000  0.00000000
C        C    0.52459000  0.69306000  0.94484000  0.00000000
C        C    0.19484000  0.05694000  0.72541000  0.00000000
C        C    0.77459000  0.80516000  0.55694000  0.00000000
C        C    0.80694000  0.94484000  0.47541000  0.00000000
C        C    0.69484000  0.55694000  0.22541000  0.00000000
C        C    0.19484000  0.94306000  0.77459000  0.00000000
C        C    0.30694000  0.55516000  0.52459000  0.00000000
C        C    0.22541000  0.30516000  0.94306000  0.00000000
C        C    0.05516000  0.97541000  0.69306000  0.00000000
C        C    0.77459000  0.19484000  0.94306000  0.00000000
C        C    0.05516000  0.02459000  0.80694000  0.00000000
C        C    0.44484000  0.97541000  0.30694000  0.00000000
C        C    0.22541000  0.69484000  0.55694000  0.00000000
C        C    0.80516000  0.44306000  0.72541000  0.00000000
C        C    0.72541000  0.80516000  0.44306000  0.00000000
C        C    0.19306000  0.55516000  0.47541000  0.00000000
C        C    0.97541000  0.30694000  0.44484000  0.00000000
C        C    0.69484000  0.44306000  0.27459000  0.00000000
C        C    0.50000000  0.25000000  0.62500000  0.00000000
C        C    0.00000000  0.75000000  0.12500000  0.00000000
C        C    0.50000000  0.75000000  0.87500000  0.00000000
C        C    0.25000000  0.37500000  0.00000000  0.00000000
C        C    0.75000000  0.12500000  0.00000000  0.00000000
C        C    0.12500000  0.00000000  0.75000000  0.00000000
C        C    0.37500000  0.00000000  0.25000000  0.00000000
C        C    0.87500000  0.50000000  0.75000000  0.00000000
C        C    0.75000000  0.87500000  0.50000000  0.00000000
C        C    0.25000000  0.62500000  0.50000000  0.00000000
C        C    0.00000000  0.25000000  0.37500000  0.00000000
C        C    0.62500000  0.50000000  0.25000000  0.00000000
H        H    0.24648000  0.10448000  0.29460000  0.00000000
H        H    0.49648000  0.54460000  0.35448000  0.00000000
H        H    0.24648000  0.89552000  0.20540000  0.00000000
H        H    0.64552000  0.99648000  0.95540000  0.00000000
H        H    0.00352000  0.45540000  0.85448000  0.00000000
H        H    0.10448000  0.29460000  0.24648000  0.00000000
H        H    0.35448000  0.50352000  0.95540000  0.00000000
H        H    0.49648000  0.45540000  0.14552000  0.00000000
H        H    0.70540000  0.25352000  0.10448000  0.00000000
H        H    0.60448000  0.79460000  0.74648000  0.00000000
H        H    0.29460000  0.75352000  0.39552000  0.00000000
H        H    0.39552000  0.29460000  0.75352000  0.00000000
H        H    0.89552000  0.79460000  0.25352000  0.00000000
H        H    0.74648000  0.60448000  0.79460000  0.00000000
H        H    0.89552000  0.20540000  0.24648000  0.00000000
H        H    0.45540000  0.14552000  0.49648000  0.00000000
H        H    0.95540000  0.64552000  0.99648000  0.00000000
H        H    0.14552000  0.50352000  0.04460000  0.00000000
H        H    0.10448000  0.70540000  0.25352000  0.00000000
H        H    0.60448000  0.20540000  0.75352000  0.00000000
H        H    0.50352000  0.04460000  0.14552000  0.00000000
H        H    0.54460000  0.35448000  0.49648000  0.00000000
H        H    0.64552000  0.00352000  0.54460000  0.00000000
H        H    0.29460000  0.24648000  0.10448000  0.00000000
H        H    0.85448000  0.99648000  0.04460000  0.00000000
H        H    0.04460000  0.85448000  0.99648000  0.00000000
H        H    0.00352000  0.54460000  0.64552000  0.00000000
H        H    0.45540000  0.85448000  0.00352000  0.00000000
H        H    0.04460000  0.14552000  0.50352000  0.00000000
H        H    0.39552000  0.70540000  0.74648000  0.00000000
H        H    0.54460000  0.64552000  0.00352000  0.00000000
H        H    0.25352000  0.10448000  0.70540000  0.00000000
H        H    0.79460000  0.74648000  0.60448000  0.00000000
H        H    0.85448000  0.00352000  0.45540000  0.00000000
H        H    0.75352000  0.60448000  0.20540000  0.00000000
H        H    0.25352000  0.89552000  0.79460000  0.00000000
H        H    0.35448000  0.49648000  0.54460000  0.00000000
H        H    0.20540000  0.24648000  0.89552000  0.00000000
H        H    0.99648000  0.95540000  0.64552000  0.00000000
H        H    0.79460000  0.25352000  0.89552000  0.00000000
H        H    0.99648000  0.04460000  0.85448000  0.00000000
H        H    0.50352000  0.95540000  0.35448000  0.00000000
H        H    0.20540000  0.75352000  0.60448000  0.00000000
H        H    0.74648000  0.39552000  0.70540000  0.00000000
H        H    0.70540000  0.74648000  0.39552000  0.00000000
H        H    0.14552000  0.49648000  0.45540000  0.00000000
H        H    0.95540000  0.35448000  0.50352000  0.00000000
H        H    0.75352000  0.39552000  0.29460000  0.00000000
H        H    0.36283000  0.05875000  0.16415000  0.00000000
H        H    0.61283000  0.41415000  0.30875000  0.00000000
H        H    0.36283000  0.94125000  0.33585000  0.00000000
H        H    0.69125000  0.11283000  0.08585000  0.00000000
H        H    0.88717000  0.58585000  0.80875000  0.00000000
H        H    0.05875000  0.16415000  0.36283000  0.00000000
H        H    0.30875000  0.38717000  0.08585000  0.00000000
H        H    0.61283000  0.58585000  0.19125000  0.00000000
H        H    0.83585000  0.13717000  0.05875000  0.00000000
H        H    0.55875000  0.66415000  0.86283000  0.00000000
H        H    0.16415000  0.63717000  0.44125000  0.00000000
H        H    0.44125000  0.16415000  0.63717000  0.00000000
H        H    0.94125000  0.66415000  0.13717000  0.00000000
H        H    0.86283000  0.55875000  0.66415000  0.00000000
H        H    0.94125000  0.33585000  0.36283000  0.00000000
H        H    0.58585000  0.19125000  0.61283000  0.00000000
H        H    0.08585000  0.69125000  0.11283000  0.00000000
H        H    0.19125000  0.38717000  0.91415000  0.00000000
H        H    0.05875000  0.83585000  0.13717000  0.00000000
H        H    0.55875000  0.33585000  0.63717000  0.00000000
H        H    0.38717000  0.91415000  0.19125000  0.00000000
H        H    0.41415000  0.30875000  0.61283000  0.00000000
H        H    0.69125000  0.88717000  0.41415000  0.00000000
H        H    0.16415000  0.36283000  0.05875000  0.00000000
H        H    0.80875000  0.11283000  0.91415000  0.00000000
H        H    0.91415000  0.80875000  0.11283000  0.00000000
H        H    0.88717000  0.41415000  0.69125000  0.00000000
H        H    0.58585000  0.80875000  0.88717000  0.00000000
H        H    0.91415000  0.19125000  0.38717000  0.00000000
H        H    0.44125000  0.83585000  0.86283000  0.00000000
H        H    0.41415000  0.69125000  0.88717000  0.00000000
H        H    0.13717000  0.05875000  0.83585000  0.00000000
H        H    0.66415000  0.86283000  0.55875000  0.00000000
H        H    0.80875000  0.88717000  0.58585000  0.00000000
H        H    0.63717000  0.55875000  0.33585000  0.00000000
H        H    0.13717000  0.94125000  0.66415000  0.00000000
H        H    0.30875000  0.61283000  0.41415000  0.00000000
H        H    0.33585000  0.36283000  0.94125000  0.00000000
H        H    0.11283000  0.08585000  0.69125000  0.00000000
H        H    0.66415000  0.13717000  0.94125000  0.00000000
H        H    0.11283000  0.91415000  0.80875000  0.00000000
H        H    0.38717000  0.08585000  0.30875000  0.00000000
H        H    0.33585000  0.63717000  0.55875000  0.00000000
H        H    0.86283000  0.44125000  0.83585000  0.00000000
H        H    0.83585000  0.86283000  0.44125000  0.00000000
H        H    0.19125000  0.61283000  0.58585000  0.00000000
H        H    0.08585000  0.30875000  0.38717000  0.00000000
H        H    0.63717000  0.44125000  0.16415000  0.00000000
H        H    0.30824000  0.12623000  0.15150000  0.00000000
H        H    0.55824000  0.40150000  0.37623000  0.00000000
H        H    0.30824000  0.87377000  0.34850000  0.00000000
H        H    0.62377000  0.05824000  0.09850000  0.00000000
H        H    0.94176000  0.59850000  0.87623000  0.00000000
H        H    0.12623000  0.15150000  0.30824000  0.00000000
H        H    0.37623000  0.44176000  0.09850000  0.00000000
H        H    0.55824000  0.59850000  0.12377000  0.00000000
H        H    0.84850000  0.19176000  0.12623000  0.00000000
H        H    0.62623000  0.65150000  0.80824000  0.00000000
H        H    0.15150000  0.69176000  0.37377000  0.00000000
H        H    0.37377000  0.15150000  0.69176000  0.00000000
H        H    0.87377000  0.65150000  0.19176000  0.00000000
H        H    0.80824000  0.62623000  0.65150000  0.00000000
H        H    0.87377000  0.34850000  0.30824000  0.00000000
H        H    0.59850000  0.12377000  0.55824000  0.00000000
H        H    0.09850000  0.62377000  0.05824000  0.00000000
H        H    0.12377000  0.44176000  0.90150000  0.00000000
H        H    0.12623000  0.84850000  0.19176000  0.00000000
H        H    0.62623000  0.34850000  0.69176000  0.00000000
H        H    0.44176000  0.90150000  0.12377000  0.00000000
H        H    0.40150000  0.37623000  0.55824000  0.00000000
H        H    0.62377000  0.94176000  0.40150000  0.00000000
H        H    0.15150000  0.30824000  0.12623000  0.00000000
H        H    0.87623000  0.05824000  0.90150000  0.00000000
H        H    0.90150000  0.87623000  0.05824000  0.00000000
H        H    0.94176000  0.40150000  0.62377000  0.00000000
H        H    0.59850000  0.87623000  0.94176000  0.00000000
H        H    0.90150000  0.12377000  0.44176000  0.00000000
H        H    0.37377000  0.84850000  0.80824000  0.00000000
H        H    0.40150000  0.62377000  0.94176000  0.00000000
H        H    0.19176000  0.12623000  0.84850000  0.00000000
H        H    0.65150000  0.80824000  0.62623000  0.00000000
H        H    0.87623000  0.94176000  0.59850000  0.00000000
H        H    0.69176000  0.62623000  0.34850000  0.00000000
H        H    0.19176000  0.87377000  0.65150000  0.00000000
H        H    0.37623000  0.55824000  0.40150000  0.00000000
H        H    0.34850000  0.30824000  0.87377000  0.00000000
H        H    0.05824000  0.09850000  0.62377000  0.00000000
H        H    0.65150000  0.19176000  0.87377000  0.00000000
H        H    0.05824000  0.90150000  0.87623000  0.00000000
H        H    0.44176000  0.09850000  0.37623000  0.00000000
H        H    0.34850000  0.69176000  0.62623000  0.00000000
H        H    0.80824000  0.37377000  0.84850000  0.00000000
H        H    0.84850000  0.80824000  0.37377000  0.00000000
H        H    0.12377000  0.55824000  0.59850000  0.00000000
H        H    0.09850000  0.37623000  0.44176000  0.00000000
H        H    0.69176000  0.37377000  0.15150000  0.00000000
H        H    0.30340000  0.03777000  0.30911000  0.00000000
H        H    0.55340000  0.55911000  0.28777000  0.00000000
H        H    0.30340000  0.96223000  0.19089000  0.00000000
H        H    0.71223000  0.05340000  0.94089000  0.00000000
H        H    0.94660000  0.44089000  0.78777000  0.00000000
H        H    0.03777000  0.30911000  0.30340000  0.00000000
H        H    0.28777000  0.44660000  0.94089000  0.00000000
H        H    0.55340000  0.44089000  0.21223000  0.00000000
H        H    0.69089000  0.19660000  0.03777000  0.00000000
H        H    0.53777000  0.80911000  0.80340000  0.00000000
H        H    0.30911000  0.69660000  0.46223000  0.00000000
H        H    0.46223000  0.30911000  0.69660000  0.00000000
H        H    0.96223000  0.80911000  0.19660000  0.00000000
H        H    0.80340000  0.53777000  0.80911000  0.00000000
H        H    0.96223000  0.19089000  0.30340000  0.00000000
H        H    0.44089000  0.21223000  0.55340000  0.00000000
H        H    0.94089000  0.71223000  0.05340000  0.00000000
H        H    0.21223000  0.44660000  0.05911000  0.00000000
H        H    0.03777000  0.69089000  0.19660000  0.00000000
H        H    0.53777000  0.19089000  0.69660000  0.00000000
H        H    0.44660000  0.05911000  0.21223000  0.00000000
H        H    0.55911000  0.28777000  0.55340000  0.00000000
H        H    0.71223000  0.94660000  0.55911000  0.00000000
H        H    0.30911000  0.30340000  0.03777000  0.00000000
H        H    0.78777000  0.05340000  0.05911000  0.00000000
H        H    0.05911000  0.78777000  0.05340000  0.00000000
H        H    0.94660000  0.55911000  0.71223000  0.00000000
H        H    0.44089000  0.78777000  0.94660000  0.00000000
H        H    0.05911000  0.21223000  0.44660000  0.00000000
H        H    0.46223000  0.69089000  0.80340000  0.00000000
H        H    0.55911000  0.71223000  0.94660000  0.00000000
H        H    0.19660000  0.03777000  0.69089000  0.00000000
H        H    0.80911000  0.80340000  0.53777000  0.00000000
H        H    0.78777000  0.94660000  0.44089000  0.00000000
H        H    0.69660000  0.53777000  0.19089000  0.00000000
H        H    0.19660000  0.96223000  0.80911000  0.00000000
H        H    0.28777000  0.55340000  0.55911000  0.00000000
H        H    0.19089000  0.30340000  0.96223000  0.00000000
H        H    0.05340000  0.94089000  0.71223000  0.00000000
H        H    0.80911000  0.19660000  0.96223000  0.00000000
H        H    0.05340000  0.05911000  0.78777000  0.00000000
H        H    0.44660000  0.94089000  0.28777000  0.00000000
H        H    0.19089000  0.69660000  0.53777000  0.00000000
H        H    0.80340000  0.46223000  0.69089000  0.00000000
H        H    0.69089000  0.80340000  0.46223000  0.00000000
H        H    0.21223000  0.55340000  0.44089000  0.00000000
H        H    0.94089000  0.28777000  0.44660000  0.00000000
H        H    0.69660000  0.46223000  0.30911000  0.00000000
