data_COF-105

_cell_length_a  44.88600000
_cell_length_b  44.88600000
_cell_length_c  44.88600000
_cell_angle_alpha  90.00000000
_cell_angle_beta  90.00000000
_cell_angle_gamma  90.00000000


_symmetry_space_group_name_Hall ' P 1'
_symmetry_space_group_name_H-M  'P 1'
_symmetry_Int_Tables_number     1

loop_
_atom_site_label
_atom_site_type_symbol
_atom_site_fract_x
_atom_site_fract_y
_atom_site_fract_z
_atom_site_charge
O        O    0.38328000  0.75077000  0.76434000  0.00000000
O        O    0.63328000  0.01434000  0.00077000  0.00000000
O        O    0.38328000  0.24923000  0.73566000  0.00000000
O        O    0.99923000  0.13328000  0.48566000  0.00000000
O        O    0.86672000  0.98566000  0.50077000  0.00000000
O        O    0.75077000  0.76434000  0.38328000  0.00000000
O        O    0.00077000  0.36672000  0.48566000  0.00000000
O        O    0.63328000  0.98566000  0.49923000  0.00000000
O        O    0.23566000  0.11672000  0.75077000  0.00000000
O        O    0.25077000  0.26434000  0.88328000  0.00000000
O        O    0.76434000  0.61672000  0.74923000  0.00000000
O        O    0.74923000  0.76434000  0.61672000  0.00000000
O        O    0.24923000  0.26434000  0.11672000  0.00000000
O        O    0.88328000  0.25077000  0.26434000  0.00000000
O        O    0.24923000  0.73566000  0.38328000  0.00000000
O        O    0.98566000  0.49923000  0.63328000  0.00000000
O        O    0.48566000  0.99923000  0.13328000  0.00000000
O        O    0.49923000  0.36672000  0.51434000  0.00000000
O        O    0.75077000  0.23566000  0.11672000  0.00000000
O        O    0.25077000  0.73566000  0.61672000  0.00000000
O        O    0.36672000  0.51434000  0.49923000  0.00000000
O        O    0.01434000  0.00077000  0.63328000  0.00000000
O        O    0.99923000  0.86672000  0.01434000  0.00000000
O        O    0.76434000  0.38328000  0.75077000  0.00000000
O        O    0.50077000  0.13328000  0.51434000  0.00000000
O        O    0.51434000  0.50077000  0.13328000  0.00000000
O        O    0.86672000  0.01434000  0.99923000  0.00000000
O        O    0.98566000  0.50077000  0.86672000  0.00000000
O        O    0.51434000  0.49923000  0.36672000  0.00000000
O        O    0.74923000  0.23566000  0.88328000  0.00000000
O        O    0.01434000  0.99923000  0.86672000  0.00000000
O        O    0.11672000  0.75077000  0.23566000  0.00000000
O        O    0.26434000  0.88328000  0.25077000  0.00000000
O        O    0.50077000  0.86672000  0.98566000  0.00000000
O        O    0.61672000  0.25077000  0.73566000  0.00000000
O        O    0.11672000  0.24923000  0.26434000  0.00000000
O        O    0.00077000  0.63328000  0.01434000  0.00000000
O        O    0.73566000  0.38328000  0.24923000  0.00000000
O        O    0.13328000  0.48566000  0.99923000  0.00000000
O        O    0.26434000  0.11672000  0.24923000  0.00000000
O        O    0.13328000  0.51434000  0.50077000  0.00000000
O        O    0.36672000  0.48566000  0.00077000  0.00000000
O        O    0.73566000  0.61672000  0.25077000  0.00000000
O        O    0.88328000  0.74923000  0.23566000  0.00000000
O        O    0.23566000  0.88328000  0.74923000  0.00000000
O        O    0.49923000  0.63328000  0.98566000  0.00000000
O        O    0.48566000  0.00077000  0.36672000  0.00000000
O        O    0.61672000  0.74923000  0.76434000  0.00000000
O        O    0.20851000  0.87069000  0.70284000  0.00000000
O        O    0.45851000  0.95284000  0.12069000  0.00000000
O        O    0.20851000  0.12931000  0.79716000  0.00000000
O        O    0.87931000  0.95851000  0.54716000  0.00000000
O        O    0.04149000  0.04716000  0.62069000  0.00000000
O        O    0.87069000  0.70284000  0.20851000  0.00000000
O        O    0.12069000  0.54149000  0.54716000  0.00000000
O        O    0.45851000  0.04716000  0.37931000  0.00000000
O        O    0.29716000  0.29149000  0.87069000  0.00000000
O        O    0.37069000  0.20284000  0.70851000  0.00000000
O        O    0.70284000  0.79149000  0.62931000  0.00000000
O        O    0.62931000  0.70284000  0.79149000  0.00000000
O        O    0.12931000  0.20284000  0.29149000  0.00000000
O        O    0.70851000  0.37069000  0.20284000  0.00000000
O        O    0.12931000  0.79716000  0.20851000  0.00000000
O        O    0.04716000  0.37931000  0.45851000  0.00000000
O        O    0.54716000  0.87931000  0.95851000  0.00000000
O        O    0.37931000  0.54149000  0.45284000  0.00000000
O        O    0.87069000  0.29716000  0.29149000  0.00000000
O        O    0.37069000  0.79716000  0.79149000  0.00000000
O        O    0.54149000  0.45284000  0.37931000  0.00000000
O        O    0.95284000  0.12069000  0.45851000  0.00000000
O        O    0.87931000  0.04149000  0.95284000  0.00000000
O        O    0.70284000  0.20851000  0.87069000  0.00000000
O        O    0.62069000  0.95851000  0.45284000  0.00000000
O        O    0.45284000  0.62069000  0.95851000  0.00000000
O        O    0.04149000  0.95284000  0.87931000  0.00000000
O        O    0.04716000  0.62069000  0.04149000  0.00000000
O        O    0.45284000  0.37931000  0.54149000  0.00000000
O        O    0.62931000  0.29716000  0.70851000  0.00000000
O        O    0.95284000  0.87931000  0.04149000  0.00000000
O        O    0.29149000  0.87069000  0.29716000  0.00000000
O        O    0.20284000  0.70851000  0.37069000  0.00000000
O        O    0.62069000  0.04149000  0.04716000  0.00000000
O        O    0.79149000  0.37069000  0.79716000  0.00000000
O        O    0.29149000  0.12931000  0.20284000  0.00000000
O        O    0.12069000  0.45851000  0.95284000  0.00000000
O        O    0.79716000  0.20851000  0.12931000  0.00000000
O        O    0.95851000  0.54716000  0.87931000  0.00000000
O        O    0.20284000  0.29149000  0.12931000  0.00000000
O        O    0.95851000  0.45284000  0.62069000  0.00000000
O        O    0.54149000  0.54716000  0.12069000  0.00000000
O        O    0.79716000  0.79149000  0.37069000  0.00000000
O        O    0.70851000  0.62931000  0.29716000  0.00000000
O        O    0.29716000  0.70851000  0.62931000  0.00000000
O        O    0.37931000  0.45851000  0.04716000  0.00000000
O        O    0.54716000  0.12069000  0.54149000  0.00000000
O        O    0.79149000  0.62931000  0.70284000  0.00000000
B        B    0.27123000  0.71095000  0.60906000  0.00000000
B        B    0.52123000  0.85906000  0.96095000  0.00000000
B        B    0.27123000  0.28905000  0.89094000  0.00000000
B        B    0.03905000  0.02123000  0.64094000  0.00000000
B        B    0.97877000  0.14094000  0.46095000  0.00000000
B        B    0.71095000  0.60906000  0.27123000  0.00000000
B        B    0.96095000  0.47877000  0.64094000  0.00000000
B        B    0.52123000  0.14094000  0.53905000  0.00000000
B        B    0.39094000  0.22877000  0.71095000  0.00000000
B        B    0.21095000  0.10906000  0.77123000  0.00000000
B        B    0.60906000  0.72877000  0.78905000  0.00000000
B        B    0.78905000  0.60906000  0.72877000  0.00000000
B        B    0.28905000  0.10906000  0.22877000  0.00000000
B        B    0.77123000  0.21095000  0.10906000  0.00000000
B        B    0.28905000  0.89094000  0.27123000  0.00000000
B        B    0.14094000  0.53905000  0.52123000  0.00000000
B        B    0.64094000  0.03905000  0.02123000  0.00000000
B        B    0.53905000  0.47877000  0.35906000  0.00000000
B        B    0.71095000  0.39094000  0.22877000  0.00000000
B        B    0.21095000  0.89094000  0.72877000  0.00000000
B        B    0.47877000  0.35906000  0.53905000  0.00000000
B        B    0.85906000  0.96095000  0.52123000  0.00000000
B        B    0.03905000  0.97877000  0.85906000  0.00000000
B        B    0.60906000  0.27123000  0.71095000  0.00000000
B        B    0.46095000  0.02123000  0.35906000  0.00000000
B        B    0.35906000  0.46095000  0.02123000  0.00000000
B        B    0.97877000  0.85906000  0.03905000  0.00000000
B        B    0.14094000  0.46095000  0.97877000  0.00000000
B        B    0.35906000  0.53905000  0.47877000  0.00000000
B        B    0.78905000  0.39094000  0.77123000  0.00000000
B        B    0.85906000  0.03905000  0.97877000  0.00000000
B        B    0.22877000  0.71095000  0.39094000  0.00000000
B        B    0.10906000  0.77123000  0.21095000  0.00000000
B        B    0.46095000  0.97877000  0.14094000  0.00000000
B        B    0.72877000  0.21095000  0.89094000  0.00000000
B        B    0.22877000  0.28905000  0.10906000  0.00000000
B        B    0.96095000  0.52123000  0.85906000  0.00000000
B        B    0.89094000  0.27123000  0.28905000  0.00000000
B        B    0.02123000  0.64094000  0.03905000  0.00000000
B        B    0.10906000  0.22877000  0.28905000  0.00000000
B        B    0.02123000  0.35906000  0.46095000  0.00000000
B        B    0.47877000  0.64094000  0.96095000  0.00000000
B        B    0.89094000  0.72877000  0.21095000  0.00000000
B        B    0.77123000  0.78905000  0.39094000  0.00000000
B        B    0.39094000  0.77123000  0.78905000  0.00000000
B        B    0.53905000  0.52123000  0.14094000  0.00000000
B        B    0.64094000  0.96095000  0.47877000  0.00000000
B        B    0.72877000  0.78905000  0.60906000  0.00000000
C        C    0.31665000  0.77355000  0.71781000  0.00000000
C        C    0.56665000  0.96781000  0.02355000  0.00000000
C        C    0.31665000  0.22645000  0.78219000  0.00000000
C        C    0.97645000  0.06665000  0.53219000  0.00000000
C        C    0.93335000  0.03219000  0.52355000  0.00000000
C        C    0.77355000  0.71781000  0.31665000  0.00000000
C        C    0.02355000  0.43335000  0.53219000  0.00000000
C        C    0.56665000  0.03219000  0.47645000  0.00000000
C        C    0.28219000  0.18335000  0.77355000  0.00000000
C        C    0.27355000  0.21781000  0.81665000  0.00000000
C        C    0.71781000  0.68335000  0.72645000  0.00000000
C        C    0.72645000  0.71781000  0.68335000  0.00000000
C        C    0.22645000  0.21781000  0.18335000  0.00000000
C        C    0.81665000  0.27355000  0.21781000  0.00000000
C        C    0.22645000  0.78219000  0.31665000  0.00000000
C        C    0.03219000  0.47645000  0.56665000  0.00000000
C        C    0.53219000  0.97645000  0.06665000  0.00000000
C        C    0.47645000  0.43335000  0.46781000  0.00000000
C        C    0.77355000  0.28219000  0.18335000  0.00000000
C        C    0.27355000  0.78219000  0.68335000  0.00000000
C        C    0.43335000  0.46781000  0.47645000  0.00000000
C        C    0.96781000  0.02355000  0.56665000  0.00000000
C        C    0.97645000  0.93335000  0.96781000  0.00000000
C        C    0.71781000  0.31665000  0.77355000  0.00000000
C        C    0.52355000  0.06665000  0.46781000  0.00000000
C        C    0.46781000  0.52355000  0.06665000  0.00000000
C        C    0.93335000  0.96781000  0.97645000  0.00000000
C        C    0.03219000  0.52355000  0.93335000  0.00000000
C        C    0.46781000  0.47645000  0.43335000  0.00000000
C        C    0.72645000  0.28219000  0.81665000  0.00000000
C        C    0.96781000  0.97645000  0.93335000  0.00000000
C        C    0.18335000  0.77355000  0.28219000  0.00000000
C        C    0.21781000  0.81665000  0.27355000  0.00000000
C        C    0.52355000  0.93335000  0.03219000  0.00000000
C        C    0.68335000  0.27355000  0.78219000  0.00000000
C        C    0.18335000  0.22645000  0.21781000  0.00000000
C        C    0.02355000  0.56665000  0.96781000  0.00000000
C        C    0.78219000  0.31665000  0.22645000  0.00000000
C        C    0.06665000  0.53219000  0.97645000  0.00000000
C        C    0.21781000  0.18335000  0.22645000  0.00000000
C        C    0.06665000  0.46781000  0.52355000  0.00000000
C        C    0.43335000  0.53219000  0.02355000  0.00000000
C        C    0.78219000  0.68335000  0.27355000  0.00000000
C        C    0.81665000  0.72645000  0.28219000  0.00000000
C        C    0.28219000  0.81665000  0.72645000  0.00000000
C        C    0.47645000  0.56665000  0.03219000  0.00000000
C        C    0.53219000  0.02355000  0.43335000  0.00000000
C        C    0.68335000  0.72645000  0.71781000  0.00000000
C        C    0.30826000  0.79982000  0.73477000  0.00000000
C        C    0.55826000  0.98477000  0.04982000  0.00000000
C        C    0.30826000  0.20018000  0.76523000  0.00000000
C        C    0.95018000  0.05826000  0.51523000  0.00000000
C        C    0.94174000  0.01523000  0.54982000  0.00000000
C        C    0.79982000  0.73477000  0.30826000  0.00000000
C        C    0.04982000  0.44174000  0.51523000  0.00000000
C        C    0.55826000  0.01523000  0.45018000  0.00000000
C        C    0.26523000  0.19174000  0.79982000  0.00000000
C        C    0.29982000  0.23477000  0.80826000  0.00000000
C        C    0.73477000  0.69174000  0.70018000  0.00000000
C        C    0.70018000  0.73477000  0.69174000  0.00000000
C        C    0.20018000  0.23477000  0.19174000  0.00000000
C        C    0.80826000  0.29982000  0.23477000  0.00000000
C        C    0.20018000  0.76523000  0.30826000  0.00000000
C        C    0.01523000  0.45018000  0.55826000  0.00000000
C        C    0.51523000  0.95018000  0.05826000  0.00000000
C        C    0.45018000  0.44174000  0.48477000  0.00000000
C        C    0.79982000  0.26523000  0.19174000  0.00000000
C        C    0.29982000  0.76523000  0.69174000  0.00000000
C        C    0.44174000  0.48477000  0.45018000  0.00000000
C        C    0.98477000  0.04982000  0.55826000  0.00000000
C        C    0.95018000  0.94174000  0.98477000  0.00000000
C        C    0.73477000  0.30826000  0.79982000  0.00000000
C        C    0.54982000  0.05826000  0.48477000  0.00000000
C        C    0.48477000  0.54982000  0.05826000  0.00000000
C        C    0.94174000  0.98477000  0.95018000  0.00000000
C        C    0.01523000  0.54982000  0.94174000  0.00000000
C        C    0.48477000  0.45018000  0.44174000  0.00000000
C        C    0.70018000  0.26523000  0.80826000  0.00000000
C        C    0.98477000  0.95018000  0.94174000  0.00000000
C        C    0.19174000  0.79982000  0.26523000  0.00000000
C        C    0.23477000  0.80826000  0.29982000  0.00000000
C        C    0.54982000  0.94174000  0.01523000  0.00000000
C        C    0.69174000  0.29982000  0.76523000  0.00000000
C        C    0.19174000  0.20018000  0.23477000  0.00000000
C        C    0.04982000  0.55826000  0.98477000  0.00000000
C        C    0.76523000  0.30826000  0.20018000  0.00000000
C        C    0.05826000  0.51523000  0.95018000  0.00000000
C        C    0.23477000  0.19174000  0.20018000  0.00000000
C        C    0.05826000  0.48477000  0.54982000  0.00000000
C        C    0.44174000  0.51523000  0.04982000  0.00000000
C        C    0.76523000  0.69174000  0.29982000  0.00000000
C        C    0.80826000  0.70018000  0.26523000  0.00000000
C        C    0.26523000  0.80826000  0.70018000  0.00000000
C        C    0.45018000  0.55826000  0.01523000  0.00000000
C        C    0.51523000  0.04982000  0.44174000  0.00000000
C        C    0.69174000  0.70018000  0.73477000  0.00000000
C        C    0.35834000  0.76545000  0.75261000  0.00000000
C        C    0.60834000  0.00261000  0.01545000  0.00000000
C        C    0.35834000  0.23455000  0.74739000  0.00000000
C        C    0.98455000  0.10834000  0.49739000  0.00000000
C        C    0.89166000  0.99739000  0.51545000  0.00000000
C        C    0.76545000  0.75261000  0.35834000  0.00000000
C        C    0.01545000  0.39166000  0.49739000  0.00000000
C        C    0.60834000  0.99739000  0.48455000  0.00000000
C        C    0.24739000  0.14166000  0.76545000  0.00000000
C        C    0.26545000  0.25261000  0.85834000  0.00000000
C        C    0.75261000  0.64166000  0.73455000  0.00000000
C        C    0.73455000  0.75261000  0.64166000  0.00000000
C        C    0.23455000  0.25261000  0.14166000  0.00000000
C        C    0.85834000  0.26545000  0.25261000  0.00000000
C        C    0.23455000  0.74739000  0.35834000  0.00000000
C        C    0.99739000  0.48455000  0.60834000  0.00000000
C        C    0.49739000  0.98455000  0.10834000  0.00000000
C        C    0.48455000  0.39166000  0.50261000  0.00000000
C        C    0.76545000  0.24739000  0.14166000  0.00000000
C        C    0.26545000  0.74739000  0.64166000  0.00000000
C        C    0.39166000  0.50261000  0.48455000  0.00000000
C        C    0.00261000  0.01545000  0.60834000  0.00000000
C        C    0.98455000  0.89166000  0.00261000  0.00000000
C        C    0.75261000  0.35834000  0.76545000  0.00000000
C        C    0.51545000  0.10834000  0.50261000  0.00000000
C        C    0.50261000  0.51545000  0.10834000  0.00000000
C        C    0.89166000  0.00261000  0.98455000  0.00000000
C        C    0.99739000  0.51545000  0.89166000  0.00000000
C        C    0.50261000  0.48455000  0.39166000  0.00000000
C        C    0.73455000  0.24739000  0.85834000  0.00000000
C        C    0.00261000  0.98455000  0.89166000  0.00000000
C        C    0.14166000  0.76545000  0.24739000  0.00000000
C        C    0.25261000  0.85834000  0.26545000  0.00000000
C        C    0.51545000  0.89166000  0.99739000  0.00000000
C        C    0.64166000  0.26545000  0.74739000  0.00000000
C        C    0.14166000  0.23455000  0.25261000  0.00000000
C        C    0.01545000  0.60834000  0.00261000  0.00000000
C        C    0.74739000  0.35834000  0.23455000  0.00000000
C        C    0.10834000  0.49739000  0.98455000  0.00000000
C        C    0.25261000  0.14166000  0.23455000  0.00000000
C        C    0.10834000  0.50261000  0.51545000  0.00000000
C        C    0.39166000  0.49739000  0.01545000  0.00000000
C        C    0.74739000  0.64166000  0.26545000  0.00000000
C        C    0.85834000  0.73455000  0.24739000  0.00000000
C        C    0.24739000  0.85834000  0.73455000  0.00000000
C        C    0.48455000  0.60834000  0.99739000  0.00000000
C        C    0.49739000  0.01545000  0.39166000  0.00000000
C        C    0.64166000  0.73455000  0.75261000  0.00000000
C        C    0.35127000  0.79118000  0.76778000  0.00000000
C        C    0.60127000  0.01778000  0.04118000  0.00000000
C        C    0.35127000  0.20882000  0.73222000  0.00000000
C        C    0.95882000  0.10127000  0.48222000  0.00000000
C        C    0.89873000  0.98222000  0.54118000  0.00000000
C        C    0.79118000  0.76778000  0.35127000  0.00000000
C        C    0.04118000  0.39873000  0.48222000  0.00000000
C        C    0.60127000  0.98222000  0.45882000  0.00000000
C        C    0.23222000  0.14873000  0.79118000  0.00000000
C        C    0.29118000  0.26778000  0.85127000  0.00000000
C        C    0.76778000  0.64873000  0.70882000  0.00000000
C        C    0.70882000  0.76778000  0.64873000  0.00000000
C        C    0.20882000  0.26778000  0.14873000  0.00000000
C        C    0.85127000  0.29118000  0.26778000  0.00000000
C        C    0.20882000  0.73222000  0.35127000  0.00000000
C        C    0.98222000  0.45882000  0.60127000  0.00000000
C        C    0.48222000  0.95882000  0.10127000  0.00000000
C        C    0.45882000  0.39873000  0.51778000  0.00000000
C        C    0.79118000  0.23222000  0.14873000  0.00000000
C        C    0.29118000  0.73222000  0.64873000  0.00000000
C        C    0.39873000  0.51778000  0.45882000  0.00000000
C        C    0.01778000  0.04118000  0.60127000  0.00000000
C        C    0.95882000  0.89873000  0.01778000  0.00000000
C        C    0.76778000  0.35127000  0.79118000  0.00000000
C        C    0.54118000  0.10127000  0.51778000  0.00000000
C        C    0.51778000  0.54118000  0.10127000  0.00000000
C        C    0.89873000  0.01778000  0.95882000  0.00000000
C        C    0.98222000  0.54118000  0.89873000  0.00000000
C        C    0.51778000  0.45882000  0.39873000  0.00000000
C        C    0.70882000  0.23222000  0.85127000  0.00000000
C        C    0.01778000  0.95882000  0.89873000  0.00000000
C        C    0.14873000  0.79118000  0.23222000  0.00000000
C        C    0.26778000  0.85127000  0.29118000  0.00000000
C        C    0.54118000  0.89873000  0.98222000  0.00000000
C        C    0.64873000  0.29118000  0.73222000  0.00000000
C        C    0.14873000  0.20882000  0.26778000  0.00000000
C        C    0.04118000  0.60127000  0.01778000  0.00000000
C        C    0.73222000  0.35127000  0.20882000  0.00000000
C        C    0.10127000  0.48222000  0.95882000  0.00000000
C        C    0.26778000  0.14873000  0.20882000  0.00000000
C        C    0.10127000  0.51778000  0.54118000  0.00000000
C        C    0.39873000  0.48222000  0.04118000  0.00000000
C        C    0.73222000  0.64873000  0.29118000  0.00000000
C        C    0.85127000  0.70882000  0.23222000  0.00000000
C        C    0.23222000  0.85127000  0.70882000  0.00000000
C        C    0.45882000  0.60127000  0.98222000  0.00000000
C        C    0.48222000  0.04118000  0.39873000  0.00000000
C        C    0.64873000  0.70882000  0.76778000  0.00000000
C        C    0.32672000  0.80863000  0.75958000  0.00000000
C        C    0.57672000  0.00958000  0.05863000  0.00000000
C        C    0.32672000  0.19137000  0.74042000  0.00000000
C        C    0.94137000  0.07672000  0.49042000  0.00000000
C        C    0.92328000  0.99042000  0.55863000  0.00000000
C        C    0.80863000  0.75958000  0.32672000  0.00000000
C        C    0.05863000  0.42328000  0.49042000  0.00000000
C        C    0.57672000  0.99042000  0.44137000  0.00000000
C        C    0.24042000  0.17328000  0.80863000  0.00000000
C        C    0.30863000  0.25958000  0.82672000  0.00000000
C        C    0.75958000  0.67328000  0.69137000  0.00000000
C        C    0.69137000  0.75958000  0.67328000  0.00000000
C        C    0.19137000  0.25958000  0.17328000  0.00000000
C        C    0.82672000  0.30863000  0.25958000  0.00000000
C        C    0.19137000  0.74042000  0.32672000  0.00000000
C        C    0.99042000  0.44137000  0.57672000  0.00000000
C        C    0.49042000  0.94137000  0.07672000  0.00000000
C        C    0.44137000  0.42328000  0.50958000  0.00000000
C        C    0.80863000  0.24042000  0.17328000  0.00000000
C        C    0.30863000  0.74042000  0.67328000  0.00000000
C        C    0.42328000  0.50958000  0.44137000  0.00000000
C        C    0.00958000  0.05863000  0.57672000  0.00000000
C        C    0.94137000  0.92328000  0.00958000  0.00000000
C        C    0.75958000  0.32672000  0.80863000  0.00000000
C        C    0.55863000  0.07672000  0.50958000  0.00000000
C        C    0.50958000  0.55863000  0.07672000  0.00000000
C        C    0.92328000  0.00958000  0.94137000  0.00000000
C        C    0.99042000  0.55863000  0.92328000  0.00000000
C        C    0.50958000  0.44137000  0.42328000  0.00000000
C        C    0.69137000  0.24042000  0.82672000  0.00000000
C        C    0.00958000  0.94137000  0.92328000  0.00000000
C        C    0.17328000  0.80863000  0.24042000  0.00000000
C        C    0.25958000  0.82672000  0.30863000  0.00000000
C        C    0.55863000  0.92328000  0.99042000  0.00000000
C        C    0.67328000  0.30863000  0.74042000  0.00000000
C        C    0.17328000  0.19137000  0.25958000  0.00000000
C        C    0.05863000  0.57672000  0.00958000  0.00000000
C        C    0.74042000  0.32672000  0.19137000  0.00000000
C        C    0.07672000  0.49042000  0.94137000  0.00000000
C        C    0.25958000  0.17328000  0.19137000  0.00000000
C        C    0.07672000  0.50958000  0.55863000  0.00000000
C        C    0.42328000  0.49042000  0.05863000  0.00000000
C        C    0.74042000  0.67328000  0.30863000  0.00000000
C        C    0.82672000  0.69137000  0.24042000  0.00000000
C        C    0.24042000  0.82672000  0.69137000  0.00000000
C        C    0.44137000  0.57672000  0.99042000  0.00000000
C        C    0.49042000  0.05863000  0.42328000  0.00000000
C        C    0.67328000  0.69137000  0.75958000  0.00000000
C        C    0.34174000  0.75613000  0.72787000  0.00000000
C        C    0.59174000  0.97787000  0.00613000  0.00000000
C        C    0.34174000  0.24387000  0.77213000  0.00000000
C        C    0.99387000  0.09174000  0.52213000  0.00000000
C        C    0.90826000  0.02213000  0.50613000  0.00000000
C        C    0.75613000  0.72787000  0.34174000  0.00000000
C        C    0.00613000  0.40826000  0.52213000  0.00000000
C        C    0.59174000  0.02213000  0.49387000  0.00000000
C        C    0.27213000  0.15826000  0.75613000  0.00000000
C        C    0.25613000  0.22787000  0.84174000  0.00000000
C        C    0.72787000  0.65826000  0.74387000  0.00000000
C        C    0.74387000  0.72787000  0.65826000  0.00000000
C        C    0.24387000  0.22787000  0.15826000  0.00000000
C        C    0.84174000  0.25613000  0.22787000  0.00000000
C        C    0.24387000  0.77213000  0.34174000  0.00000000
C        C    0.02213000  0.49387000  0.59174000  0.00000000
C        C    0.52213000  0.99387000  0.09174000  0.00000000
C        C    0.49387000  0.40826000  0.47787000  0.00000000
C        C    0.75613000  0.27213000  0.15826000  0.00000000
C        C    0.25613000  0.77213000  0.65826000  0.00000000
C        C    0.40826000  0.47787000  0.49387000  0.00000000
C        C    0.97787000  0.00613000  0.59174000  0.00000000
C        C    0.99387000  0.90826000  0.97787000  0.00000000
C        C    0.72787000  0.34174000  0.75613000  0.00000000
C        C    0.50613000  0.09174000  0.47787000  0.00000000
C        C    0.47787000  0.50613000  0.09174000  0.00000000
C        C    0.90826000  0.97787000  0.99387000  0.00000000
C        C    0.02213000  0.50613000  0.90826000  0.00000000
C        C    0.47787000  0.49387000  0.40826000  0.00000000
C        C    0.74387000  0.27213000  0.84174000  0.00000000
C        C    0.97787000  0.99387000  0.90826000  0.00000000
C        C    0.15826000  0.75613000  0.27213000  0.00000000
C        C    0.22787000  0.84174000  0.25613000  0.00000000
C        C    0.50613000  0.90826000  0.02213000  0.00000000
C        C    0.65826000  0.25613000  0.77213000  0.00000000
C        C    0.15826000  0.24387000  0.22787000  0.00000000
C        C    0.00613000  0.59174000  0.97787000  0.00000000
C        C    0.77213000  0.34174000  0.24387000  0.00000000
C        C    0.09174000  0.52213000  0.99387000  0.00000000
C        C    0.22787000  0.15826000  0.24387000  0.00000000
C        C    0.09174000  0.47787000  0.50613000  0.00000000
C        C    0.40826000  0.52213000  0.00613000  0.00000000
C        C    0.77213000  0.65826000  0.25613000  0.00000000
C        C    0.84174000  0.74387000  0.27213000  0.00000000
C        C    0.27213000  0.84174000  0.74387000  0.00000000
C        C    0.49387000  0.59174000  0.02213000  0.00000000
C        C    0.52213000  0.00613000  0.40826000  0.00000000
C        C    0.65826000  0.74387000  0.72787000  0.00000000
C        C    0.28272000  0.64772000  0.55035000  0.00000000
C        C    0.53272000  0.80035000  0.89772000  0.00000000
C        C    0.28272000  0.35228000  0.94965000  0.00000000
C        C    0.10228000  0.03272000  0.69965000  0.00000000
C        C    0.96728000  0.19965000  0.39772000  0.00000000
C        C    0.64772000  0.55035000  0.28272000  0.00000000
C        C    0.89772000  0.46728000  0.69965000  0.00000000
C        C    0.53272000  0.19965000  0.60228000  0.00000000
C        C    0.44965000  0.21728000  0.64772000  0.00000000
C        C    0.14772000  0.05035000  0.78272000  0.00000000
C        C    0.55035000  0.71728000  0.85228000  0.00000000
C        C    0.85228000  0.55035000  0.71728000  0.00000000
C        C    0.35228000  0.05035000  0.21728000  0.00000000
C        C    0.78272000  0.14772000  0.05035000  0.00000000
C        C    0.35228000  0.94965000  0.28272000  0.00000000
C        C    0.19965000  0.60228000  0.53272000  0.00000000
C        C    0.69965000  0.10228000  0.03272000  0.00000000
C        C    0.60228000  0.46728000  0.30035000  0.00000000
C        C    0.64772000  0.44965000  0.21728000  0.00000000
C        C    0.14772000  0.94965000  0.71728000  0.00000000
C        C    0.46728000  0.30035000  0.60228000  0.00000000
C        C    0.80035000  0.89772000  0.53272000  0.00000000
C        C    0.10228000  0.96728000  0.80035000  0.00000000
C        C    0.55035000  0.28272000  0.64772000  0.00000000
C        C    0.39772000  0.03272000  0.30035000  0.00000000
C        C    0.30035000  0.39772000  0.03272000  0.00000000
C        C    0.96728000  0.80035000  0.10228000  0.00000000
C        C    0.19965000  0.39772000  0.96728000  0.00000000
C        C    0.30035000  0.60228000  0.46728000  0.00000000
C        C    0.85228000  0.44965000  0.78272000  0.00000000
C        C    0.80035000  0.10228000  0.96728000  0.00000000
C        C    0.21728000  0.64772000  0.44965000  0.00000000
C        C    0.05035000  0.78272000  0.14772000  0.00000000
C        C    0.39772000  0.96728000  0.19965000  0.00000000
C        C    0.71728000  0.14772000  0.94965000  0.00000000
C        C    0.21728000  0.35228000  0.05035000  0.00000000
C        C    0.89772000  0.53272000  0.80035000  0.00000000
C        C    0.94965000  0.28272000  0.35228000  0.00000000
C        C    0.03272000  0.69965000  0.10228000  0.00000000
C        C    0.05035000  0.21728000  0.35228000  0.00000000
C        C    0.03272000  0.30035000  0.39772000  0.00000000
C        C    0.46728000  0.69965000  0.89772000  0.00000000
C        C    0.94965000  0.71728000  0.14772000  0.00000000
C        C    0.78272000  0.85228000  0.44965000  0.00000000
C        C    0.44965000  0.78272000  0.85228000  0.00000000
C        C    0.60228000  0.53272000  0.19965000  0.00000000
C        C    0.69965000  0.89772000  0.46728000  0.00000000
C        C    0.71728000  0.85228000  0.55035000  0.00000000
C        C    0.25652000  0.65013000  0.53288000  0.00000000
C        C    0.50652000  0.78288000  0.90013000  0.00000000
C        C    0.25652000  0.34987000  0.96712000  0.00000000
C        C    0.09987000  0.00652000  0.71712000  0.00000000
C        C    0.99348000  0.21712000  0.40013000  0.00000000
C        C    0.65013000  0.53288000  0.25652000  0.00000000
C        C    0.90013000  0.49348000  0.71712000  0.00000000
C        C    0.50652000  0.21712000  0.59987000  0.00000000
C        C    0.46712000  0.24348000  0.65013000  0.00000000
C        C    0.15013000  0.03288000  0.75652000  0.00000000
C        C    0.53288000  0.74348000  0.84987000  0.00000000
C        C    0.84987000  0.53288000  0.74348000  0.00000000
C        C    0.34987000  0.03288000  0.24348000  0.00000000
C        C    0.75652000  0.15013000  0.03288000  0.00000000
C        C    0.34987000  0.96712000  0.25652000  0.00000000
C        C    0.21712000  0.59987000  0.50652000  0.00000000
C        C    0.71712000  0.09987000  0.00652000  0.00000000
C        C    0.59987000  0.49348000  0.28288000  0.00000000
C        C    0.65013000  0.46712000  0.24348000  0.00000000
C        C    0.15013000  0.96712000  0.74348000  0.00000000
C        C    0.49348000  0.28288000  0.59987000  0.00000000
C        C    0.78288000  0.90013000  0.50652000  0.00000000
C        C    0.09987000  0.99348000  0.78288000  0.00000000
C        C    0.53288000  0.25652000  0.65013000  0.00000000
C        C    0.40013000  0.00652000  0.28288000  0.00000000
C        C    0.28288000  0.40013000  0.00652000  0.00000000
C        C    0.99348000  0.78288000  0.09987000  0.00000000
C        C    0.21712000  0.40013000  0.99348000  0.00000000
C        C    0.28288000  0.59987000  0.49348000  0.00000000
C        C    0.84987000  0.46712000  0.75652000  0.00000000
C        C    0.78288000  0.09987000  0.99348000  0.00000000
C        C    0.24348000  0.65013000  0.46712000  0.00000000
C        C    0.03288000  0.75652000  0.15013000  0.00000000
C        C    0.40013000  0.99348000  0.21712000  0.00000000
C        C    0.74348000  0.15013000  0.96712000  0.00000000
C        C    0.24348000  0.34987000  0.03288000  0.00000000
C        C    0.90013000  0.50652000  0.78288000  0.00000000
C        C    0.96712000  0.25652000  0.34987000  0.00000000
C        C    0.00652000  0.71712000  0.09987000  0.00000000
C        C    0.03288000  0.24348000  0.34987000  0.00000000
C        C    0.00652000  0.28288000  0.40013000  0.00000000
C        C    0.49348000  0.71712000  0.90013000  0.00000000
C        C    0.96712000  0.74348000  0.15013000  0.00000000
C        C    0.75652000  0.84987000  0.46712000  0.00000000
C        C    0.46712000  0.75652000  0.84987000  0.00000000
C        C    0.59987000  0.50652000  0.21712000  0.00000000
C        C    0.71712000  0.90013000  0.49348000  0.00000000
C        C    0.74348000  0.84987000  0.53288000  0.00000000
C        C    0.23525000  0.67245000  0.53978000  0.00000000
C        C    0.48525000  0.78978000  0.92245000  0.00000000
C        C    0.23525000  0.32755000  0.96022000  0.00000000
C        C    0.07755000  0.98525000  0.71022000  0.00000000
C        C    0.01475000  0.21022000  0.42245000  0.00000000
C        C    0.67245000  0.53978000  0.23525000  0.00000000
C        C    0.92245000  0.51475000  0.71022000  0.00000000
C        C    0.48525000  0.21022000  0.57755000  0.00000000
C        C    0.46022000  0.26475000  0.67245000  0.00000000
C        C    0.17245000  0.03978000  0.73525000  0.00000000
C        C    0.53978000  0.76475000  0.82755000  0.00000000
C        C    0.82755000  0.53978000  0.76475000  0.00000000
C        C    0.32755000  0.03978000  0.26475000  0.00000000
C        C    0.73525000  0.17245000  0.03978000  0.00000000
C        C    0.32755000  0.96022000  0.23525000  0.00000000
C        C    0.21022000  0.57755000  0.48525000  0.00000000
C        C    0.71022000  0.07755000  0.98525000  0.00000000
C        C    0.57755000  0.51475000  0.28978000  0.00000000
C        C    0.67245000  0.46022000  0.26475000  0.00000000
C        C    0.17245000  0.96022000  0.76475000  0.00000000
C        C    0.51475000  0.28978000  0.57755000  0.00000000
C        C    0.78978000  0.92245000  0.48525000  0.00000000
C        C    0.07755000  0.01475000  0.78978000  0.00000000
C        C    0.53978000  0.23525000  0.67245000  0.00000000
C        C    0.42245000  0.98525000  0.28978000  0.00000000
C        C    0.28978000  0.42245000  0.98525000  0.00000000
C        C    0.01475000  0.78978000  0.07755000  0.00000000
C        C    0.21022000  0.42245000  0.01475000  0.00000000
C        C    0.28978000  0.57755000  0.51475000  0.00000000
C        C    0.82755000  0.46022000  0.73525000  0.00000000
C        C    0.78978000  0.07755000  0.01475000  0.00000000
C        C    0.26475000  0.67245000  0.46022000  0.00000000
C        C    0.03978000  0.73525000  0.17245000  0.00000000
C        C    0.42245000  0.01475000  0.21022000  0.00000000
C        C    0.76475000  0.17245000  0.96022000  0.00000000
C        C    0.26475000  0.32755000  0.03978000  0.00000000
C        C    0.92245000  0.48525000  0.78978000  0.00000000
C        C    0.96022000  0.23525000  0.32755000  0.00000000
C        C    0.98525000  0.71022000  0.07755000  0.00000000
C        C    0.03978000  0.26475000  0.32755000  0.00000000
C        C    0.98525000  0.28978000  0.42245000  0.00000000
C        C    0.51475000  0.71022000  0.92245000  0.00000000
C        C    0.96022000  0.76475000  0.17245000  0.00000000
C        C    0.73525000  0.82755000  0.46022000  0.00000000
C        C    0.46022000  0.73525000  0.82755000  0.00000000
C        C    0.57755000  0.48525000  0.21022000  0.00000000
C        C    0.71022000  0.92245000  0.51475000  0.00000000
C        C    0.76475000  0.82755000  0.53978000  0.00000000
C        C    0.23992000  0.69189000  0.56410000  0.00000000
C        C    0.48992000  0.81410000  0.94189000  0.00000000
C        C    0.23992000  0.30811000  0.93590000  0.00000000
C        C    0.05811000  0.98992000  0.68590000  0.00000000
C        C    0.01008000  0.18590000  0.44189000  0.00000000
C        C    0.69189000  0.56410000  0.23992000  0.00000000
C        C    0.94189000  0.51008000  0.68590000  0.00000000
C        C    0.48992000  0.18590000  0.55811000  0.00000000
C        C    0.43590000  0.26008000  0.69189000  0.00000000
C        C    0.19189000  0.06410000  0.73992000  0.00000000
C        C    0.56410000  0.76008000  0.80811000  0.00000000
C        C    0.80811000  0.56410000  0.76008000  0.00000000
C        C    0.30811000  0.06410000  0.26008000  0.00000000
C        C    0.73992000  0.19189000  0.06410000  0.00000000
C        C    0.30811000  0.93590000  0.23992000  0.00000000
C        C    0.18590000  0.55811000  0.48992000  0.00000000
C        C    0.68590000  0.05811000  0.98992000  0.00000000
C        C    0.55811000  0.51008000  0.31410000  0.00000000
C        C    0.69189000  0.43590000  0.26008000  0.00000000
C        C    0.19189000  0.93590000  0.76008000  0.00000000
C        C    0.51008000  0.31410000  0.55811000  0.00000000
C        C    0.81410000  0.94189000  0.48992000  0.00000000
C        C    0.05811000  0.01008000  0.81410000  0.00000000
C        C    0.56410000  0.23992000  0.69189000  0.00000000
C        C    0.44189000  0.98992000  0.31410000  0.00000000
C        C    0.31410000  0.44189000  0.98992000  0.00000000
C        C    0.01008000  0.81410000  0.05811000  0.00000000
C        C    0.18590000  0.44189000  0.01008000  0.00000000
C        C    0.31410000  0.55811000  0.51008000  0.00000000
C        C    0.80811000  0.43590000  0.73992000  0.00000000
C        C    0.81410000  0.05811000  0.01008000  0.00000000
C        C    0.26008000  0.69189000  0.43590000  0.00000000
C        C    0.06410000  0.73992000  0.19189000  0.00000000
C        C    0.44189000  0.01008000  0.18590000  0.00000000
C        C    0.76008000  0.19189000  0.93590000  0.00000000
C        C    0.26008000  0.30811000  0.06410000  0.00000000
C        C    0.94189000  0.48992000  0.81410000  0.00000000
C        C    0.93590000  0.23992000  0.30811000  0.00000000
C        C    0.98992000  0.68590000  0.05811000  0.00000000
C        C    0.06410000  0.26008000  0.30811000  0.00000000
C        C    0.98992000  0.31410000  0.44189000  0.00000000
C        C    0.51008000  0.68590000  0.94189000  0.00000000
C        C    0.93590000  0.76008000  0.19189000  0.00000000
C        C    0.73992000  0.80811000  0.43590000  0.00000000
C        C    0.43590000  0.73992000  0.80811000  0.00000000
C        C    0.55811000  0.48992000  0.18590000  0.00000000
C        C    0.68590000  0.94189000  0.51008000  0.00000000
C        C    0.76008000  0.80811000  0.56410000  0.00000000
C        C    0.26597000  0.68925000  0.58180000  0.00000000
C        C    0.51597000  0.83180000  0.93925000  0.00000000
C        C    0.26597000  0.31075000  0.91820000  0.00000000
C        C    0.06075000  0.01597000  0.66820000  0.00000000
C        C    0.98403000  0.16820000  0.43925000  0.00000000
C        C    0.68925000  0.58180000  0.26597000  0.00000000
C        C    0.93925000  0.48403000  0.66820000  0.00000000
C        C    0.51597000  0.16820000  0.56075000  0.00000000
C        C    0.41820000  0.23403000  0.68925000  0.00000000
C        C    0.18925000  0.08180000  0.76597000  0.00000000
C        C    0.58180000  0.73403000  0.81075000  0.00000000
C        C    0.81075000  0.58180000  0.73403000  0.00000000
C        C    0.31075000  0.08180000  0.23403000  0.00000000
C        C    0.76597000  0.18925000  0.08180000  0.00000000
C        C    0.31075000  0.91820000  0.26597000  0.00000000
C        C    0.16820000  0.56075000  0.51597000  0.00000000
C        C    0.66820000  0.06075000  0.01597000  0.00000000
C        C    0.56075000  0.48403000  0.33180000  0.00000000
C        C    0.68925000  0.41820000  0.23403000  0.00000000
C        C    0.18925000  0.91820000  0.73403000  0.00000000
C        C    0.48403000  0.33180000  0.56075000  0.00000000
C        C    0.83180000  0.93925000  0.51597000  0.00000000
C        C    0.06075000  0.98403000  0.83180000  0.00000000
C        C    0.58180000  0.26597000  0.68925000  0.00000000
C        C    0.43925000  0.01597000  0.33180000  0.00000000
C        C    0.33180000  0.43925000  0.01597000  0.00000000
C        C    0.98403000  0.83180000  0.06075000  0.00000000
C        C    0.16820000  0.43925000  0.98403000  0.00000000
C        C    0.33180000  0.56075000  0.48403000  0.00000000
C        C    0.81075000  0.41820000  0.76597000  0.00000000
C        C    0.83180000  0.06075000  0.98403000  0.00000000
C        C    0.23403000  0.68925000  0.41820000  0.00000000
C        C    0.08180000  0.76597000  0.18925000  0.00000000
C        C    0.43925000  0.98403000  0.16820000  0.00000000
C        C    0.73403000  0.18925000  0.91820000  0.00000000
C        C    0.23403000  0.31075000  0.08180000  0.00000000
C        C    0.93925000  0.51597000  0.83180000  0.00000000
C        C    0.91820000  0.26597000  0.31075000  0.00000000
C        C    0.01597000  0.66820000  0.06075000  0.00000000
C        C    0.08180000  0.23403000  0.31075000  0.00000000
C        C    0.01597000  0.33180000  0.43925000  0.00000000
C        C    0.48403000  0.66820000  0.93925000  0.00000000
C        C    0.91820000  0.73403000  0.18925000  0.00000000
C        C    0.76597000  0.81075000  0.41820000  0.00000000
C        C    0.41820000  0.76597000  0.81075000  0.00000000
C        C    0.56075000  0.51597000  0.16820000  0.00000000
C        C    0.66820000  0.93925000  0.48403000  0.00000000
C        C    0.73403000  0.81075000  0.58180000  0.00000000
C        C    0.28735000  0.66706000  0.57478000  0.00000000
C        C    0.53735000  0.82478000  0.91706000  0.00000000
C        C    0.28735000  0.33294000  0.92522000  0.00000000
C        C    0.08294000  0.03735000  0.67522000  0.00000000
C        C    0.96265000  0.17522000  0.41706000  0.00000000
C        C    0.66706000  0.57478000  0.28735000  0.00000000
C        C    0.91706000  0.46265000  0.67522000  0.00000000
C        C    0.53735000  0.17522000  0.58294000  0.00000000
C        C    0.42522000  0.21265000  0.66706000  0.00000000
C        C    0.16706000  0.07478000  0.78735000  0.00000000
C        C    0.57478000  0.71265000  0.83294000  0.00000000
C        C    0.83294000  0.57478000  0.71265000  0.00000000
C        C    0.33294000  0.07478000  0.21265000  0.00000000
C        C    0.78735000  0.16706000  0.07478000  0.00000000
C        C    0.33294000  0.92522000  0.28735000  0.00000000
C        C    0.17522000  0.58294000  0.53735000  0.00000000
C        C    0.67522000  0.08294000  0.03735000  0.00000000
C        C    0.58294000  0.46265000  0.32478000  0.00000000
C        C    0.66706000  0.42522000  0.21265000  0.00000000
C        C    0.16706000  0.92522000  0.71265000  0.00000000
C        C    0.46265000  0.32478000  0.58294000  0.00000000
C        C    0.82478000  0.91706000  0.53735000  0.00000000
C        C    0.08294000  0.96265000  0.82478000  0.00000000
C        C    0.57478000  0.28735000  0.66706000  0.00000000
C        C    0.41706000  0.03735000  0.32478000  0.00000000
C        C    0.32478000  0.41706000  0.03735000  0.00000000
C        C    0.96265000  0.82478000  0.08294000  0.00000000
C        C    0.17522000  0.41706000  0.96265000  0.00000000
C        C    0.32478000  0.58294000  0.46265000  0.00000000
C        C    0.83294000  0.42522000  0.78735000  0.00000000
C        C    0.82478000  0.08294000  0.96265000  0.00000000
C        C    0.21265000  0.66706000  0.42522000  0.00000000
C        C    0.07478000  0.78735000  0.16706000  0.00000000
C        C    0.41706000  0.96265000  0.17522000  0.00000000
C        C    0.71265000  0.16706000  0.92522000  0.00000000
C        C    0.21265000  0.33294000  0.07478000  0.00000000
C        C    0.91706000  0.53735000  0.82478000  0.00000000
C        C    0.92522000  0.28735000  0.33294000  0.00000000
C        C    0.03735000  0.67522000  0.08294000  0.00000000
C        C    0.07478000  0.21265000  0.33294000  0.00000000
C        C    0.03735000  0.32478000  0.41706000  0.00000000
C        C    0.46265000  0.67522000  0.91706000  0.00000000
C        C    0.92522000  0.71265000  0.16706000  0.00000000
C        C    0.78735000  0.83294000  0.42522000  0.00000000
C        C    0.42522000  0.78735000  0.83294000  0.00000000
C        C    0.58294000  0.53735000  0.17522000  0.00000000
C        C    0.67522000  0.91706000  0.46265000  0.00000000
C        C    0.71265000  0.83294000  0.57478000  0.00000000
Si       Si   0.12500000  0.00000000  0.75000000  0.00000000
Si       Si   0.50000000  0.25000000  0.62500000  0.00000000
Si       Si   0.25000000  0.62500000  0.50000000  0.00000000
Si       Si   0.37500000  0.00000000  0.25000000  0.00000000
Si       Si   0.75000000  0.12500000  0.00000000  0.00000000
Si       Si   0.25000000  0.37500000  0.00000000  0.00000000
Si       Si   0.87500000  0.50000000  0.75000000  0.00000000
Si       Si   0.00000000  0.25000000  0.37500000  0.00000000
Si       Si   0.00000000  0.75000000  0.12500000  0.00000000
Si       Si   0.50000000  0.75000000  0.87500000  0.00000000
Si       Si   0.62500000  0.50000000  0.25000000  0.00000000
Si       Si   0.75000000  0.87500000  0.50000000  0.00000000
H        H    0.32320000  0.82869000  0.77270000  0.00000000
H        H    0.57320000  0.02270000  0.07869000  0.00000000
H        H    0.32320000  0.17131000  0.72730000  0.00000000
H        H    0.92131000  0.07320000  0.47730000  0.00000000
H        H    0.92680000  0.97730000  0.57869000  0.00000000
H        H    0.82869000  0.77270000  0.32320000  0.00000000
H        H    0.07869000  0.42680000  0.47730000  0.00000000
H        H    0.57320000  0.97730000  0.42131000  0.00000000
H        H    0.22730000  0.17680000  0.82869000  0.00000000
H        H    0.32869000  0.27270000  0.82320000  0.00000000
H        H    0.77270000  0.67680000  0.67131000  0.00000000
H        H    0.67131000  0.77270000  0.67680000  0.00000000
H        H    0.17131000  0.27270000  0.17680000  0.00000000
H        H    0.82320000  0.32869000  0.27270000  0.00000000
H        H    0.17131000  0.72730000  0.32320000  0.00000000
H        H    0.97730000  0.42131000  0.57320000  0.00000000
H        H    0.47730000  0.92131000  0.07320000  0.00000000
H        H    0.42131000  0.42680000  0.52270000  0.00000000
H        H    0.82869000  0.22730000  0.17680000  0.00000000
H        H    0.32869000  0.72730000  0.67680000  0.00000000
H        H    0.42680000  0.52270000  0.42131000  0.00000000
H        H    0.02270000  0.07869000  0.57320000  0.00000000
H        H    0.92131000  0.92680000  0.02270000  0.00000000
H        H    0.77270000  0.32320000  0.82869000  0.00000000
H        H    0.57869000  0.07320000  0.52270000  0.00000000
H        H    0.52270000  0.57869000  0.07320000  0.00000000
H        H    0.92680000  0.02270000  0.92131000  0.00000000
H        H    0.97730000  0.57869000  0.92680000  0.00000000
H        H    0.52270000  0.42131000  0.42680000  0.00000000
H        H    0.67131000  0.22730000  0.82320000  0.00000000
H        H    0.02270000  0.92131000  0.92680000  0.00000000
H        H    0.17680000  0.82869000  0.22730000  0.00000000
H        H    0.27270000  0.82320000  0.32869000  0.00000000
H        H    0.57869000  0.92680000  0.97730000  0.00000000
H        H    0.67680000  0.32869000  0.72730000  0.00000000
H        H    0.17680000  0.17131000  0.27270000  0.00000000
H        H    0.07869000  0.57320000  0.02270000  0.00000000
H        H    0.72730000  0.32320000  0.17131000  0.00000000
H        H    0.07320000  0.47730000  0.92131000  0.00000000
H        H    0.27270000  0.17680000  0.17131000  0.00000000
H        H    0.07320000  0.52270000  0.57869000  0.00000000
H        H    0.42680000  0.47730000  0.07869000  0.00000000
H        H    0.72730000  0.67680000  0.32869000  0.00000000
H        H    0.82320000  0.67131000  0.22730000  0.00000000
H        H    0.22730000  0.82320000  0.67131000  0.00000000
H        H    0.42131000  0.57320000  0.97730000  0.00000000
H        H    0.47730000  0.07869000  0.42680000  0.00000000
H        H    0.67680000  0.67131000  0.77270000  0.00000000
H        H    0.34886000  0.73536000  0.71763000  0.00000000
H        H    0.59886000  0.96763000  0.98536000  0.00000000
H        H    0.34886000  0.26464000  0.78237000  0.00000000
H        H    0.01464000  0.09886000  0.53237000  0.00000000
H        H    0.90114000  0.03237000  0.48536000  0.00000000
H        H    0.73536000  0.71763000  0.34886000  0.00000000
H        H    0.98536000  0.40114000  0.53237000  0.00000000
H        H    0.59886000  0.03237000  0.51464000  0.00000000
H        H    0.28237000  0.15114000  0.73536000  0.00000000
H        H    0.23536000  0.21763000  0.84886000  0.00000000
H        H    0.71763000  0.65114000  0.76464000  0.00000000
H        H    0.76464000  0.71763000  0.65114000  0.00000000
H        H    0.26464000  0.21763000  0.15114000  0.00000000
H        H    0.84886000  0.23536000  0.21763000  0.00000000
H        H    0.26464000  0.78237000  0.34886000  0.00000000
H        H    0.03237000  0.51464000  0.59886000  0.00000000
H        H    0.53237000  0.01464000  0.09886000  0.00000000
H        H    0.51464000  0.40114000  0.46763000  0.00000000
H        H    0.73536000  0.28237000  0.15114000  0.00000000
H        H    0.23536000  0.78237000  0.65114000  0.00000000
H        H    0.40114000  0.46763000  0.51464000  0.00000000
H        H    0.96763000  0.98536000  0.59886000  0.00000000
H        H    0.01464000  0.90114000  0.96763000  0.00000000
H        H    0.71763000  0.34886000  0.73536000  0.00000000
H        H    0.48536000  0.09886000  0.46763000  0.00000000
H        H    0.46763000  0.48536000  0.09886000  0.00000000
H        H    0.90114000  0.96763000  0.01464000  0.00000000
H        H    0.03237000  0.48536000  0.90114000  0.00000000
H        H    0.46763000  0.51464000  0.40114000  0.00000000
H        H    0.76464000  0.28237000  0.84886000  0.00000000
H        H    0.96763000  0.01464000  0.90114000  0.00000000
H        H    0.15114000  0.73536000  0.28237000  0.00000000
H        H    0.21763000  0.84886000  0.23536000  0.00000000
H        H    0.48536000  0.90114000  0.03237000  0.00000000
H        H    0.65114000  0.23536000  0.78237000  0.00000000
H        H    0.15114000  0.26464000  0.21763000  0.00000000
H        H    0.98536000  0.59886000  0.96763000  0.00000000
H        H    0.78237000  0.34886000  0.26464000  0.00000000
H        H    0.09886000  0.53237000  0.01464000  0.00000000
H        H    0.21763000  0.15114000  0.26464000  0.00000000
H        H    0.09886000  0.46763000  0.48536000  0.00000000
H        H    0.40114000  0.53237000  0.98536000  0.00000000
H        H    0.78237000  0.65114000  0.23536000  0.00000000
H        H    0.84886000  0.76464000  0.28237000  0.00000000
H        H    0.28237000  0.84886000  0.76464000  0.00000000
H        H    0.51464000  0.59886000  0.03237000  0.00000000
H        H    0.53237000  0.98536000  0.40114000  0.00000000
H        H    0.65114000  0.76464000  0.71763000  0.00000000
H        H    0.29972000  0.63106000  0.54522000  0.00000000
H        H    0.54972000  0.79522000  0.88106000  0.00000000
H        H    0.29972000  0.36894000  0.95478000  0.00000000
H        H    0.11894000  0.04972000  0.70478000  0.00000000
H        H    0.95028000  0.20478000  0.38106000  0.00000000
H        H    0.63106000  0.54522000  0.29972000  0.00000000
H        H    0.88106000  0.45028000  0.70478000  0.00000000
H        H    0.54972000  0.20478000  0.61894000  0.00000000
H        H    0.45478000  0.20028000  0.63106000  0.00000000
H        H    0.13106000  0.04522000  0.79972000  0.00000000
H        H    0.54522000  0.70028000  0.86894000  0.00000000
H        H    0.86894000  0.54522000  0.70028000  0.00000000
H        H    0.36894000  0.04522000  0.20028000  0.00000000
H        H    0.79972000  0.13106000  0.04522000  0.00000000
H        H    0.36894000  0.95478000  0.29972000  0.00000000
H        H    0.20478000  0.61894000  0.54972000  0.00000000
H        H    0.70478000  0.11894000  0.04972000  0.00000000
H        H    0.61894000  0.45028000  0.29522000  0.00000000
H        H    0.63106000  0.45478000  0.20028000  0.00000000
H        H    0.13106000  0.95478000  0.70028000  0.00000000
H        H    0.45028000  0.29522000  0.61894000  0.00000000
H        H    0.79522000  0.88106000  0.54972000  0.00000000
H        H    0.11894000  0.95028000  0.79522000  0.00000000
H        H    0.54522000  0.29972000  0.63106000  0.00000000
H        H    0.38106000  0.04972000  0.29522000  0.00000000
H        H    0.29522000  0.38106000  0.04972000  0.00000000
H        H    0.95028000  0.79522000  0.11894000  0.00000000
H        H    0.20478000  0.38106000  0.95028000  0.00000000
H        H    0.29522000  0.61894000  0.45028000  0.00000000
H        H    0.86894000  0.45478000  0.79972000  0.00000000
H        H    0.79522000  0.11894000  0.95028000  0.00000000
H        H    0.20028000  0.63106000  0.45478000  0.00000000
H        H    0.04522000  0.79972000  0.13106000  0.00000000
H        H    0.38106000  0.95028000  0.20478000  0.00000000
H        H    0.70028000  0.13106000  0.95478000  0.00000000
H        H    0.20028000  0.36894000  0.04522000  0.00000000
H        H    0.88106000  0.54972000  0.79522000  0.00000000
H        H    0.95478000  0.29972000  0.36894000  0.00000000
H        H    0.04972000  0.70478000  0.11894000  0.00000000
H        H    0.04522000  0.20028000  0.36894000  0.00000000
H        H    0.04972000  0.29522000  0.38106000  0.00000000
H        H    0.45028000  0.70478000  0.88106000  0.00000000
H        H    0.95478000  0.70028000  0.13106000  0.00000000
H        H    0.79972000  0.86894000  0.45478000  0.00000000
H        H    0.45478000  0.79972000  0.86894000  0.00000000
H        H    0.61894000  0.54972000  0.20478000  0.00000000
H        H    0.70478000  0.88106000  0.45028000  0.00000000
H        H    0.70028000  0.86894000  0.54522000  0.00000000
H        H    0.30772000  0.66471000  0.58803000  0.00000000
H        H    0.55772000  0.83803000  0.91471000  0.00000000
H        H    0.30772000  0.33529000  0.91197000  0.00000000
H        H    0.08529000  0.05772000  0.66197000  0.00000000
H        H    0.94228000  0.16197000  0.41471000  0.00000000
H        H    0.66471000  0.58803000  0.30772000  0.00000000
H        H    0.91471000  0.44228000  0.66197000  0.00000000
H        H    0.55772000  0.16197000  0.58529000  0.00000000
H        H    0.41197000  0.19228000  0.66471000  0.00000000
H        H    0.16471000  0.08803000  0.80772000  0.00000000
H        H    0.58803000  0.69228000  0.83529000  0.00000000
H        H    0.83529000  0.58803000  0.69228000  0.00000000
H        H    0.33529000  0.08803000  0.19228000  0.00000000
H        H    0.80772000  0.16471000  0.08803000  0.00000000
H        H    0.33529000  0.91197000  0.30772000  0.00000000
H        H    0.16197000  0.58529000  0.55772000  0.00000000
H        H    0.66197000  0.08529000  0.05772000  0.00000000
H        H    0.58529000  0.44228000  0.33803000  0.00000000
H        H    0.66471000  0.41197000  0.19228000  0.00000000
H        H    0.16471000  0.91197000  0.69228000  0.00000000
H        H    0.44228000  0.33803000  0.58529000  0.00000000
H        H    0.83803000  0.91471000  0.55772000  0.00000000
H        H    0.08529000  0.94228000  0.83803000  0.00000000
H        H    0.58803000  0.30772000  0.66471000  0.00000000
H        H    0.41471000  0.05772000  0.33803000  0.00000000
H        H    0.33803000  0.41471000  0.05772000  0.00000000
H        H    0.94228000  0.83803000  0.08529000  0.00000000
H        H    0.16197000  0.41471000  0.94228000  0.00000000
H        H    0.33803000  0.58529000  0.44228000  0.00000000
H        H    0.83529000  0.41197000  0.80772000  0.00000000
H        H    0.83803000  0.08529000  0.94228000  0.00000000
H        H    0.19228000  0.66471000  0.41197000  0.00000000
H        H    0.08803000  0.80772000  0.16471000  0.00000000
H        H    0.41471000  0.94228000  0.16197000  0.00000000
H        H    0.69228000  0.16471000  0.91197000  0.00000000
H        H    0.19228000  0.33529000  0.08803000  0.00000000
H        H    0.91471000  0.55772000  0.83803000  0.00000000
H        H    0.91197000  0.30772000  0.33529000  0.00000000
H        H    0.05772000  0.66197000  0.08529000  0.00000000
H        H    0.08803000  0.19228000  0.33529000  0.00000000
H        H    0.05772000  0.33803000  0.41471000  0.00000000
H        H    0.44228000  0.66197000  0.91471000  0.00000000
H        H    0.91197000  0.69228000  0.16471000  0.00000000
H        H    0.80772000  0.83529000  0.41197000  0.00000000
H        H    0.41197000  0.80772000  0.83529000  0.00000000
H        H    0.58529000  0.55772000  0.16197000  0.00000000
H        H    0.66197000  0.91471000  0.44228000  0.00000000
H        H    0.69228000  0.83529000  0.58803000  0.00000000
H        H    0.21503000  0.67482000  0.52632000  0.00000000
H        H    0.46503000  0.77632000  0.92482000  0.00000000
H        H    0.21503000  0.32518000  0.97368000  0.00000000
H        H    0.07518000  0.96503000  0.72368000  0.00000000
H        H    0.03497000  0.22368000  0.42482000  0.00000000
H        H    0.67482000  0.52632000  0.21503000  0.00000000
H        H    0.92482000  0.53497000  0.72368000  0.00000000
H        H    0.46503000  0.22368000  0.57518000  0.00000000
H        H    0.47368000  0.28497000  0.67482000  0.00000000
H        H    0.17482000  0.02632000  0.71503000  0.00000000
H        H    0.52632000  0.78497000  0.82518000  0.00000000
H        H    0.82518000  0.52632000  0.78497000  0.00000000
H        H    0.32518000  0.02632000  0.28497000  0.00000000
H        H    0.71503000  0.17482000  0.02632000  0.00000000
H        H    0.32518000  0.97368000  0.21503000  0.00000000
H        H    0.22368000  0.57518000  0.46503000  0.00000000
H        H    0.72368000  0.07518000  0.96503000  0.00000000
H        H    0.57518000  0.53497000  0.27632000  0.00000000
H        H    0.67482000  0.47368000  0.28497000  0.00000000
H        H    0.17482000  0.97368000  0.78497000  0.00000000
H        H    0.53497000  0.27632000  0.57518000  0.00000000
H        H    0.77632000  0.92482000  0.46503000  0.00000000
H        H    0.07518000  0.03497000  0.77632000  0.00000000
H        H    0.52632000  0.21503000  0.67482000  0.00000000
H        H    0.42482000  0.96503000  0.27632000  0.00000000
H        H    0.27632000  0.42482000  0.96503000  0.00000000
H        H    0.03497000  0.77632000  0.07518000  0.00000000
H        H    0.22368000  0.42482000  0.03497000  0.00000000
H        H    0.27632000  0.57518000  0.53497000  0.00000000
H        H    0.82518000  0.47368000  0.71503000  0.00000000
H        H    0.77632000  0.07518000  0.03497000  0.00000000
H        H    0.28497000  0.67482000  0.47368000  0.00000000
H        H    0.02632000  0.71503000  0.17482000  0.00000000
H        H    0.42482000  0.03497000  0.22368000  0.00000000
H        H    0.78497000  0.17482000  0.97368000  0.00000000
H        H    0.28497000  0.32518000  0.02632000  0.00000000
H        H    0.92482000  0.46503000  0.77632000  0.00000000
H        H    0.97368000  0.21503000  0.32518000  0.00000000
H        H    0.96503000  0.72368000  0.07518000  0.00000000
H        H    0.02632000  0.28497000  0.32518000  0.00000000
H        H    0.96503000  0.27632000  0.42482000  0.00000000
H        H    0.53497000  0.72368000  0.92482000  0.00000000
H        H    0.97368000  0.78497000  0.17482000  0.00000000
H        H    0.71503000  0.82518000  0.47368000  0.00000000
H        H    0.47368000  0.71503000  0.82518000  0.00000000
H        H    0.57518000  0.46503000  0.22368000  0.00000000
H        H    0.72368000  0.92482000  0.53497000  0.00000000
H        H    0.78497000  0.82518000  0.52632000  0.00000000
H        H    0.22314000  0.70892000  0.56904000  0.00000000
H        H    0.47314000  0.81904000  0.95892000  0.00000000
H        H    0.22314000  0.29108000  0.93096000  0.00000000
H        H    0.04108000  0.97314000  0.68096000  0.00000000
H        H    0.02686000  0.18096000  0.45892000  0.00000000
H        H    0.70892000  0.56904000  0.22314000  0.00000000
H        H    0.95892000  0.52686000  0.68096000  0.00000000
H        H    0.47314000  0.18096000  0.54108000  0.00000000
H        H    0.43096000  0.27686000  0.70892000  0.00000000
H        H    0.20892000  0.06904000  0.72314000  0.00000000
H        H    0.56904000  0.77686000  0.79108000  0.00000000
H        H    0.79108000  0.56904000  0.77686000  0.00000000
H        H    0.29108000  0.06904000  0.27686000  0.00000000
H        H    0.72314000  0.20892000  0.06904000  0.00000000
H        H    0.29108000  0.93096000  0.22314000  0.00000000
H        H    0.18096000  0.54108000  0.47314000  0.00000000
H        H    0.68096000  0.04108000  0.97314000  0.00000000
H        H    0.54108000  0.52686000  0.31904000  0.00000000
H        H    0.70892000  0.43096000  0.27686000  0.00000000
H        H    0.20892000  0.93096000  0.77686000  0.00000000
H        H    0.52686000  0.31904000  0.54108000  0.00000000
H        H    0.81904000  0.95892000  0.47314000  0.00000000
H        H    0.04108000  0.02686000  0.81904000  0.00000000
H        H    0.56904000  0.22314000  0.70892000  0.00000000
H        H    0.45892000  0.97314000  0.31904000  0.00000000
H        H    0.31904000  0.45892000  0.97314000  0.00000000
H        H    0.02686000  0.81904000  0.04108000  0.00000000
H        H    0.18096000  0.45892000  0.02686000  0.00000000
H        H    0.31904000  0.54108000  0.52686000  0.00000000
H        H    0.79108000  0.43096000  0.72314000  0.00000000
H        H    0.81904000  0.04108000  0.02686000  0.00000000
H        H    0.27686000  0.70892000  0.43096000  0.00000000
H        H    0.06904000  0.72314000  0.20892000  0.00000000
H        H    0.45892000  0.02686000  0.18096000  0.00000000
H        H    0.77686000  0.20892000  0.93096000  0.00000000
H        H    0.27686000  0.29108000  0.06904000  0.00000000
H        H    0.95892000  0.47314000  0.81904000  0.00000000
H        H    0.93096000  0.22314000  0.29108000  0.00000000
H        H    0.97314000  0.68096000  0.04108000  0.00000000
H        H    0.06904000  0.27686000  0.29108000  0.00000000
H        H    0.97314000  0.31904000  0.45892000  0.00000000
H        H    0.52686000  0.68096000  0.95892000  0.00000000
H        H    0.93096000  0.77686000  0.20892000  0.00000000
H        H    0.72314000  0.79108000  0.43096000  0.00000000
H        H    0.43096000  0.72314000  0.79108000  0.00000000
H        H    0.54108000  0.47314000  0.18096000  0.00000000
H        H    0.68096000  0.95892000  0.52686000  0.00000000
H        H    0.77686000  0.79108000  0.56904000  0.00000000
