data_COF-202

_cell_length_a  30.10510000
_cell_length_b  30.10510000
_cell_length_c  30.10510000
_cell_angle_alpha  90.00000000
_cell_angle_beta  90.00000000
_cell_angle_gamma  90.00000000


_symmetry_space_group_name_Hall ' P 1'
_symmetry_space_group_name_H-M  'P 1'
_symmetry_Int_Tables_number     1

loop_
_atom_site_label
_atom_site_type_symbol
_atom_site_fract_x
_atom_site_fract_y
_atom_site_fract_z
_atom_site_charge
C        C    0.26680000  0.30349000  0.10579000  0.00000000
C        C    0.51680000  0.35579000  0.55349000  0.00000000
C        C    0.26680000  0.69651000  0.39421000  0.00000000
C        C    0.44651000  0.01680000  0.14421000  0.00000000
C        C    0.98320000  0.64421000  0.05349000  0.00000000
C        C    0.30349000  0.10579000  0.26680000  0.00000000
C        C    0.55349000  0.48320000  0.14421000  0.00000000
C        C    0.51680000  0.64421000  0.94651000  0.00000000
C        C    0.89421000  0.23320000  0.30349000  0.00000000
C        C    0.80349000  0.60579000  0.76680000  0.00000000
C        C    0.10579000  0.73320000  0.19651000  0.00000000
C        C    0.19651000  0.10579000  0.73320000  0.00000000
C        C    0.69651000  0.60579000  0.23320000  0.00000000
C        C    0.76680000  0.80349000  0.60579000  0.00000000
C        C    0.69651000  0.39421000  0.26680000  0.00000000
C        C    0.64421000  0.94651000  0.51680000  0.00000000
C        C    0.14421000  0.44651000  0.01680000  0.00000000
C        C    0.94651000  0.48320000  0.85579000  0.00000000
C        C    0.30349000  0.89421000  0.23320000  0.00000000
C        C    0.80349000  0.39421000  0.73320000  0.00000000
C        C    0.48320000  0.85579000  0.94651000  0.00000000
C        C    0.35579000  0.55349000  0.51680000  0.00000000
C        C    0.44651000  0.98320000  0.35579000  0.00000000
C        C    0.10579000  0.26680000  0.30349000  0.00000000
C        C    0.05349000  0.01680000  0.85579000  0.00000000
C        C    0.85579000  0.05349000  0.01680000  0.00000000
C        C    0.98320000  0.35579000  0.44651000  0.00000000
C        C    0.64421000  0.05349000  0.98320000  0.00000000
C        C    0.85579000  0.94651000  0.48320000  0.00000000
C        C    0.19651000  0.89421000  0.76680000  0.00000000
C        C    0.35579000  0.44651000  0.98320000  0.00000000
C        C    0.23320000  0.30349000  0.89421000  0.00000000
C        C    0.60579000  0.76680000  0.80349000  0.00000000
C        C    0.05349000  0.98320000  0.64421000  0.00000000
C        C    0.73320000  0.80349000  0.39421000  0.00000000
C        C    0.23320000  0.69651000  0.60579000  0.00000000
C        C    0.55349000  0.51680000  0.35579000  0.00000000
C        C    0.39421000  0.26680000  0.69651000  0.00000000
C        C    0.01680000  0.14421000  0.44651000  0.00000000
C        C    0.60579000  0.23320000  0.69651000  0.00000000
C        C    0.01680000  0.85579000  0.05349000  0.00000000
C        C    0.48320000  0.14421000  0.55349000  0.00000000
C        C    0.39421000  0.73320000  0.80349000  0.00000000
C        C    0.76680000  0.19651000  0.89421000  0.00000000
C        C    0.89421000  0.76680000  0.19651000  0.00000000
C        C    0.94651000  0.51680000  0.64421000  0.00000000
C        C    0.14421000  0.55349000  0.48320000  0.00000000
C        C    0.73320000  0.19651000  0.10579000  0.00000000
Si       Si   0.01492000  0.51492000  0.98508000  0.00000000
Si       Si   0.23508000  0.76492000  0.26492000  0.00000000
Si       Si   0.23508000  0.23508000  0.23508000  0.00000000
Si       Si   0.51492000  0.98508000  0.01492000  0.00000000
Si       Si   0.48508000  0.51492000  0.01492000  0.00000000
Si       Si   0.73508000  0.73508000  0.73508000  0.00000000
Si       Si   0.48508000  0.48508000  0.48508000  0.00000000
Si       Si   0.26492000  0.23508000  0.76492000  0.00000000
Si       Si   0.98508000  0.01492000  0.51492000  0.00000000
Si       Si   0.98508000  0.98508000  0.98508000  0.00000000
Si       Si   0.51492000  0.01492000  0.48508000  0.00000000
Si       Si   0.26492000  0.76492000  0.73508000  0.00000000
Si       Si   0.73508000  0.26492000  0.76492000  0.00000000
Si       Si   0.76492000  0.73508000  0.26492000  0.00000000
Si       Si   0.01492000  0.48508000  0.51492000  0.00000000
Si       Si   0.76492000  0.26492000  0.23508000  0.00000000
C        C    0.97868000  0.47868000  0.02132000  0.00000000
C        C    0.27132000  0.72868000  0.22868000  0.00000000
C        C    0.27132000  0.27132000  0.27132000  0.00000000
C        C    0.47868000  0.02132000  0.97868000  0.00000000
C        C    0.52132000  0.47868000  0.97868000  0.00000000
C        C    0.77132000  0.77132000  0.77132000  0.00000000
C        C    0.52132000  0.52132000  0.52132000  0.00000000
C        C    0.22868000  0.27132000  0.72868000  0.00000000
C        C    0.02132000  0.97868000  0.47868000  0.00000000
C        C    0.02132000  0.02132000  0.02132000  0.00000000
C        C    0.47868000  0.97868000  0.52132000  0.00000000
C        C    0.22868000  0.72868000  0.77132000  0.00000000
C        C    0.77132000  0.22868000  0.72868000  0.00000000
C        C    0.72868000  0.77132000  0.22868000  0.00000000
C        C    0.97868000  0.52132000  0.47868000  0.00000000
C        C    0.72868000  0.22868000  0.27132000  0.00000000
C        C    0.24183000  0.34308000  0.03943000  0.00000000
C        C    0.49183000  0.28943000  0.59308000  0.00000000
C        C    0.24183000  0.65692000  0.46057000  0.00000000
C        C    0.40692000  0.99183000  0.21057000  0.00000000
C        C    0.00817000  0.71057000  0.09308000  0.00000000
C        C    0.34308000  0.03943000  0.24183000  0.00000000
C        C    0.59308000  0.50817000  0.21057000  0.00000000
C        C    0.49183000  0.71057000  0.90692000  0.00000000
C        C    0.96057000  0.25817000  0.34308000  0.00000000
C        C    0.84308000  0.53943000  0.74183000  0.00000000
C        C    0.03943000  0.75817000  0.15692000  0.00000000
C        C    0.15692000  0.03943000  0.75817000  0.00000000
C        C    0.65692000  0.53943000  0.25817000  0.00000000
C        C    0.74183000  0.84308000  0.53943000  0.00000000
C        C    0.65692000  0.46057000  0.24183000  0.00000000
C        C    0.71057000  0.90692000  0.49183000  0.00000000
C        C    0.21057000  0.40692000  0.99183000  0.00000000
C        C    0.90692000  0.50817000  0.78943000  0.00000000
C        C    0.34308000  0.96057000  0.25817000  0.00000000
C        C    0.84308000  0.46057000  0.75817000  0.00000000
C        C    0.50817000  0.78943000  0.90692000  0.00000000
C        C    0.28943000  0.59308000  0.49183000  0.00000000
C        C    0.40692000  0.00817000  0.28943000  0.00000000
C        C    0.03943000  0.24183000  0.34308000  0.00000000
C        C    0.09308000  0.99183000  0.78943000  0.00000000
C        C    0.78943000  0.09308000  0.99183000  0.00000000
C        C    0.00817000  0.28943000  0.40692000  0.00000000
C        C    0.71057000  0.09308000  0.00817000  0.00000000
C        C    0.78943000  0.90692000  0.50817000  0.00000000
C        C    0.15692000  0.96057000  0.74183000  0.00000000
C        C    0.28943000  0.40692000  0.00817000  0.00000000
C        C    0.25817000  0.34308000  0.96057000  0.00000000
C        C    0.53943000  0.74183000  0.84308000  0.00000000
C        C    0.09308000  0.00817000  0.71057000  0.00000000
C        C    0.75817000  0.84308000  0.46057000  0.00000000
C        C    0.25817000  0.65692000  0.53943000  0.00000000
C        C    0.59308000  0.49183000  0.28943000  0.00000000
C        C    0.46057000  0.24183000  0.65692000  0.00000000
C        C    0.99183000  0.21057000  0.40692000  0.00000000
C        C    0.53943000  0.25817000  0.65692000  0.00000000
C        C    0.99183000  0.78943000  0.09308000  0.00000000
C        C    0.50817000  0.21057000  0.59308000  0.00000000
C        C    0.46057000  0.75817000  0.84308000  0.00000000
C        C    0.74183000  0.15692000  0.96057000  0.00000000
C        C    0.96057000  0.74183000  0.15692000  0.00000000
C        C    0.90692000  0.49183000  0.71057000  0.00000000
C        C    0.21057000  0.59308000  0.50817000  0.00000000
C        C    0.75817000  0.15692000  0.03943000  0.00000000
B        B    0.21738000  0.24697000  0.14665000  0.00000000
B        B    0.46738000  0.39665000  0.49697000  0.00000000
B        B    0.21738000  0.75303000  0.35335000  0.00000000
B        B    0.50303000  0.96738000  0.10335000  0.00000000
B        B    0.03262000  0.60335000  0.99697000  0.00000000
B        B    0.24697000  0.14665000  0.21738000  0.00000000
B        B    0.49697000  0.53262000  0.10335000  0.00000000
B        B    0.46738000  0.60335000  0.00303000  0.00000000
B        B    0.85335000  0.28262000  0.24697000  0.00000000
B        B    0.74697000  0.64665000  0.71738000  0.00000000
B        B    0.14665000  0.78262000  0.25303000  0.00000000
B        B    0.25303000  0.14665000  0.78262000  0.00000000
B        B    0.75303000  0.64665000  0.28262000  0.00000000
B        B    0.71738000  0.74697000  0.64665000  0.00000000
B        B    0.75303000  0.35335000  0.21738000  0.00000000
B        B    0.60335000  0.00303000  0.46738000  0.00000000
B        B    0.10335000  0.50303000  0.96738000  0.00000000
B        B    0.00303000  0.53262000  0.89665000  0.00000000
B        B    0.24697000  0.85335000  0.28262000  0.00000000
B        B    0.74697000  0.35335000  0.78262000  0.00000000
B        B    0.53262000  0.89665000  0.00303000  0.00000000
B        B    0.39665000  0.49697000  0.46738000  0.00000000
B        B    0.50303000  0.03262000  0.39665000  0.00000000
B        B    0.14665000  0.21738000  0.24697000  0.00000000
B        B    0.99697000  0.96738000  0.89665000  0.00000000
B        B    0.89665000  0.99697000  0.96738000  0.00000000
B        B    0.03262000  0.39665000  0.50303000  0.00000000
B        B    0.60335000  0.99697000  0.03262000  0.00000000
B        B    0.89665000  0.00303000  0.53262000  0.00000000
B        B    0.25303000  0.85335000  0.71738000  0.00000000
B        B    0.39665000  0.50303000  0.03262000  0.00000000
B        B    0.28262000  0.24697000  0.85335000  0.00000000
B        B    0.64665000  0.71738000  0.74697000  0.00000000
B        B    0.99697000  0.03262000  0.60335000  0.00000000
B        B    0.78262000  0.74697000  0.35335000  0.00000000
B        B    0.28262000  0.75303000  0.64665000  0.00000000
B        B    0.49697000  0.46738000  0.39665000  0.00000000
B        B    0.35335000  0.21738000  0.75303000  0.00000000
B        B    0.96738000  0.10335000  0.50303000  0.00000000
B        B    0.64665000  0.28262000  0.75303000  0.00000000
B        B    0.96738000  0.89665000  0.99697000  0.00000000
B        B    0.53262000  0.10335000  0.49697000  0.00000000
B        B    0.35335000  0.78262000  0.74697000  0.00000000
B        B    0.71738000  0.25303000  0.85335000  0.00000000
B        B    0.85335000  0.71738000  0.25303000  0.00000000
B        B    0.00303000  0.46738000  0.60335000  0.00000000
B        B    0.10335000  0.49697000  0.53262000  0.00000000
B        B    0.78262000  0.25303000  0.14665000  0.00000000
O        O    0.25256000  0.23977000  0.17980000  0.00000000
O        O    0.50256000  0.42980000  0.48977000  0.00000000
O        O    0.25256000  0.76023000  0.32020000  0.00000000
O        O    0.51023000  0.00256000  0.07020000  0.00000000
O        O    0.99744000  0.57020000  0.98977000  0.00000000
O        O    0.23977000  0.17980000  0.25256000  0.00000000
O        O    0.48977000  0.49744000  0.07020000  0.00000000
O        O    0.50256000  0.57020000  0.01023000  0.00000000
O        O    0.82020000  0.24744000  0.23977000  0.00000000
O        O    0.73977000  0.67980000  0.75256000  0.00000000
O        O    0.17980000  0.74744000  0.26023000  0.00000000
O        O    0.26023000  0.17980000  0.74744000  0.00000000
O        O    0.76023000  0.67980000  0.24744000  0.00000000
O        O    0.75256000  0.73977000  0.67980000  0.00000000
O        O    0.76023000  0.32020000  0.25256000  0.00000000
O        O    0.57020000  0.01023000  0.50256000  0.00000000
O        O    0.07020000  0.51023000  0.00256000  0.00000000
O        O    0.01023000  0.49744000  0.92980000  0.00000000
O        O    0.23977000  0.82020000  0.24744000  0.00000000
O        O    0.73977000  0.32020000  0.74744000  0.00000000
O        O    0.49744000  0.92980000  0.01023000  0.00000000
O        O    0.42980000  0.48977000  0.50256000  0.00000000
O        O    0.51023000  0.99744000  0.42980000  0.00000000
O        O    0.17980000  0.25256000  0.23977000  0.00000000
O        O    0.98977000  0.00256000  0.92980000  0.00000000
O        O    0.92980000  0.98977000  0.00256000  0.00000000
O        O    0.99744000  0.42980000  0.51023000  0.00000000
O        O    0.57020000  0.98977000  0.99744000  0.00000000
O        O    0.92980000  0.01023000  0.49744000  0.00000000
O        O    0.26023000  0.82020000  0.75256000  0.00000000
O        O    0.42980000  0.51023000  0.99744000  0.00000000
O        O    0.24744000  0.23977000  0.82020000  0.00000000
O        O    0.67980000  0.75256000  0.73977000  0.00000000
O        O    0.98977000  0.99744000  0.57020000  0.00000000
O        O    0.74744000  0.73977000  0.32020000  0.00000000
O        O    0.24744000  0.76023000  0.67980000  0.00000000
O        O    0.48977000  0.50256000  0.42980000  0.00000000
O        O    0.32020000  0.25256000  0.76023000  0.00000000
O        O    0.00256000  0.07020000  0.51023000  0.00000000
O        O    0.67980000  0.24744000  0.76023000  0.00000000
O        O    0.00256000  0.92980000  0.98977000  0.00000000
O        O    0.49744000  0.07020000  0.48977000  0.00000000
O        O    0.32020000  0.74744000  0.73977000  0.00000000
O        O    0.75256000  0.26023000  0.82020000  0.00000000
O        O    0.82020000  0.75256000  0.26023000  0.00000000
O        O    0.01023000  0.50256000  0.57020000  0.00000000
O        O    0.07020000  0.48977000  0.49744000  0.00000000
O        O    0.74744000  0.26023000  0.17980000  0.00000000
C        C    0.20239000  0.31767000  0.04069000  0.00000000
C        C    0.45239000  0.29069000  0.56767000  0.00000000
C        C    0.20239000  0.68233000  0.45931000  0.00000000
C        C    0.43233000  0.95239000  0.20931000  0.00000000
C        C    0.04761000  0.70931000  0.06767000  0.00000000
C        C    0.31767000  0.04069000  0.20239000  0.00000000
C        C    0.56767000  0.54761000  0.20931000  0.00000000
C        C    0.45239000  0.70931000  0.93233000  0.00000000
C        C    0.95931000  0.29761000  0.31767000  0.00000000
C        C    0.81767000  0.54069000  0.70239000  0.00000000
C        C    0.04069000  0.79761000  0.18233000  0.00000000
C        C    0.18233000  0.04069000  0.79761000  0.00000000
C        C    0.68233000  0.54069000  0.29761000  0.00000000
C        C    0.70239000  0.81767000  0.54069000  0.00000000
C        C    0.68233000  0.45931000  0.20239000  0.00000000
C        C    0.70931000  0.93233000  0.45239000  0.00000000
C        C    0.20931000  0.43233000  0.95239000  0.00000000
C        C    0.93233000  0.54761000  0.79069000  0.00000000
C        C    0.31767000  0.95931000  0.29761000  0.00000000
C        C    0.81767000  0.45931000  0.79761000  0.00000000
C        C    0.54761000  0.79069000  0.93233000  0.00000000
C        C    0.29069000  0.56767000  0.45239000  0.00000000
C        C    0.43233000  0.04761000  0.29069000  0.00000000
C        C    0.04069000  0.20239000  0.31767000  0.00000000
C        C    0.06767000  0.95239000  0.79069000  0.00000000
C        C    0.79069000  0.06767000  0.95239000  0.00000000
C        C    0.04761000  0.29069000  0.43233000  0.00000000
C        C    0.70931000  0.06767000  0.04761000  0.00000000
C        C    0.79069000  0.93233000  0.54761000  0.00000000
C        C    0.18233000  0.95931000  0.70239000  0.00000000
C        C    0.29069000  0.43233000  0.04761000  0.00000000
C        C    0.29761000  0.31767000  0.95931000  0.00000000
C        C    0.54069000  0.70239000  0.81767000  0.00000000
C        C    0.06767000  0.04761000  0.70931000  0.00000000
C        C    0.79761000  0.81767000  0.45931000  0.00000000
C        C    0.29761000  0.68233000  0.54069000  0.00000000
C        C    0.56767000  0.45239000  0.29069000  0.00000000
C        C    0.45931000  0.20239000  0.68233000  0.00000000
C        C    0.95239000  0.20931000  0.43233000  0.00000000
C        C    0.54069000  0.29761000  0.68233000  0.00000000
C        C    0.95239000  0.79069000  0.06767000  0.00000000
C        C    0.54761000  0.20931000  0.56767000  0.00000000
C        C    0.45931000  0.79761000  0.81767000  0.00000000
C        C    0.70239000  0.18233000  0.95931000  0.00000000
C        C    0.95931000  0.70239000  0.18233000  0.00000000
C        C    0.93233000  0.45239000  0.70931000  0.00000000
C        C    0.20931000  0.56767000  0.54761000  0.00000000
C        C    0.79761000  0.18233000  0.04069000  0.00000000
C        C    0.22646000  0.28038000  0.10789000  0.00000000
C        C    0.47646000  0.35789000  0.53038000  0.00000000
C        C    0.22646000  0.71962000  0.39211000  0.00000000
C        C    0.46962000  0.97646000  0.14211000  0.00000000
C        C    0.02354000  0.64211000  0.03038000  0.00000000
C        C    0.28038000  0.10789000  0.22646000  0.00000000
C        C    0.53038000  0.52354000  0.14211000  0.00000000
C        C    0.47646000  0.64211000  0.96962000  0.00000000
C        C    0.89211000  0.27354000  0.28038000  0.00000000
C        C    0.78038000  0.60789000  0.72646000  0.00000000
C        C    0.10789000  0.77354000  0.21962000  0.00000000
C        C    0.21962000  0.10789000  0.77354000  0.00000000
C        C    0.71962000  0.60789000  0.27354000  0.00000000
C        C    0.72646000  0.78038000  0.60789000  0.00000000
C        C    0.71962000  0.39211000  0.22646000  0.00000000
C        C    0.64211000  0.96962000  0.47646000  0.00000000
C        C    0.14211000  0.46962000  0.97646000  0.00000000
C        C    0.96962000  0.52354000  0.85789000  0.00000000
C        C    0.28038000  0.89211000  0.27354000  0.00000000
C        C    0.78038000  0.39211000  0.77354000  0.00000000
C        C    0.52354000  0.85789000  0.96962000  0.00000000
C        C    0.35789000  0.53038000  0.47646000  0.00000000
C        C    0.46962000  0.02354000  0.35789000  0.00000000
C        C    0.10789000  0.22646000  0.28038000  0.00000000
C        C    0.03038000  0.97646000  0.85789000  0.00000000
C        C    0.85789000  0.03038000  0.97646000  0.00000000
C        C    0.02354000  0.35789000  0.46962000  0.00000000
C        C    0.64211000  0.03038000  0.02354000  0.00000000
C        C    0.85789000  0.96962000  0.52354000  0.00000000
C        C    0.21962000  0.89211000  0.72646000  0.00000000
C        C    0.35789000  0.46962000  0.02354000  0.00000000
C        C    0.27354000  0.28038000  0.89211000  0.00000000
C        C    0.60789000  0.72646000  0.78038000  0.00000000
C        C    0.03038000  0.02354000  0.64211000  0.00000000
C        C    0.77354000  0.78038000  0.39211000  0.00000000
C        C    0.27354000  0.71962000  0.60789000  0.00000000
C        C    0.53038000  0.47646000  0.35789000  0.00000000
C        C    0.39211000  0.22646000  0.71962000  0.00000000
C        C    0.97646000  0.14211000  0.46962000  0.00000000
C        C    0.60789000  0.27354000  0.71962000  0.00000000
C        C    0.97646000  0.85789000  0.03038000  0.00000000
C        C    0.52354000  0.14211000  0.53038000  0.00000000
C        C    0.39211000  0.77354000  0.78038000  0.00000000
C        C    0.72646000  0.21962000  0.89211000  0.00000000
C        C    0.89211000  0.72646000  0.21962000  0.00000000
C        C    0.96962000  0.47646000  0.64211000  0.00000000
C        C    0.14211000  0.53038000  0.52354000  0.00000000
C        C    0.77354000  0.21962000  0.10789000  0.00000000
C        C    0.19450000  0.28731000  0.07482000  0.00000000
C        C    0.44450000  0.32482000  0.53731000  0.00000000
C        C    0.19450000  0.71269000  0.42518000  0.00000000
C        C    0.46269000  0.94450000  0.17518000  0.00000000
C        C    0.05550000  0.67518000  0.03731000  0.00000000
C        C    0.28731000  0.07482000  0.19450000  0.00000000
C        C    0.53731000  0.55550000  0.17518000  0.00000000
C        C    0.44450000  0.67518000  0.96269000  0.00000000
C        C    0.92518000  0.30550000  0.28731000  0.00000000
C        C    0.78731000  0.57482000  0.69450000  0.00000000
C        C    0.07482000  0.80550000  0.21269000  0.00000000
C        C    0.21269000  0.07482000  0.80550000  0.00000000
C        C    0.71269000  0.57482000  0.30550000  0.00000000
C        C    0.69450000  0.78731000  0.57482000  0.00000000
C        C    0.71269000  0.42518000  0.19450000  0.00000000
C        C    0.67518000  0.96269000  0.44450000  0.00000000
C        C    0.17518000  0.46269000  0.94450000  0.00000000
C        C    0.96269000  0.55550000  0.82482000  0.00000000
C        C    0.28731000  0.92518000  0.30550000  0.00000000
C        C    0.78731000  0.42518000  0.80550000  0.00000000
C        C    0.55550000  0.82482000  0.96269000  0.00000000
C        C    0.32482000  0.53731000  0.44450000  0.00000000
C        C    0.46269000  0.05550000  0.32482000  0.00000000
C        C    0.07482000  0.19450000  0.28731000  0.00000000
C        C    0.03731000  0.94450000  0.82482000  0.00000000
C        C    0.82482000  0.03731000  0.94450000  0.00000000
C        C    0.05550000  0.32482000  0.46269000  0.00000000
C        C    0.67518000  0.03731000  0.05550000  0.00000000
C        C    0.82482000  0.96269000  0.55550000  0.00000000
C        C    0.21269000  0.92518000  0.69450000  0.00000000
C        C    0.32482000  0.46269000  0.05550000  0.00000000
C        C    0.30550000  0.28731000  0.92518000  0.00000000
C        C    0.57482000  0.69450000  0.78731000  0.00000000
C        C    0.03731000  0.05550000  0.67518000  0.00000000
C        C    0.80550000  0.78731000  0.42518000  0.00000000
C        C    0.30550000  0.71269000  0.57482000  0.00000000
C        C    0.53731000  0.44450000  0.32482000  0.00000000
C        C    0.42518000  0.19450000  0.71269000  0.00000000
C        C    0.94450000  0.17518000  0.46269000  0.00000000
C        C    0.57482000  0.30550000  0.71269000  0.00000000
C        C    0.94450000  0.82482000  0.03731000  0.00000000
C        C    0.55550000  0.17518000  0.53731000  0.00000000
C        C    0.42518000  0.80550000  0.78731000  0.00000000
C        C    0.69450000  0.21269000  0.92518000  0.00000000
C        C    0.92518000  0.69450000  0.21269000  0.00000000
C        C    0.96269000  0.44450000  0.67518000  0.00000000
C        C    0.17518000  0.53731000  0.55550000  0.00000000
C        C    0.80550000  0.21269000  0.07482000  0.00000000
Si       Si   0.07821000  0.57821000  0.92179000  0.00000000
Si       Si   0.17179000  0.82821000  0.32821000  0.00000000
Si       Si   0.17179000  0.17179000  0.17179000  0.00000000
Si       Si   0.57821000  0.92179000  0.07821000  0.00000000
Si       Si   0.42179000  0.57821000  0.07821000  0.00000000
Si       Si   0.67179000  0.67179000  0.67179000  0.00000000
Si       Si   0.42179000  0.42179000  0.42179000  0.00000000
Si       Si   0.32821000  0.17179000  0.82821000  0.00000000
Si       Si   0.92179000  0.07821000  0.57821000  0.00000000
Si       Si   0.92179000  0.92179000  0.92179000  0.00000000
Si       Si   0.57821000  0.07821000  0.42179000  0.00000000
Si       Si   0.32821000  0.82821000  0.67179000  0.00000000
Si       Si   0.67179000  0.32821000  0.82821000  0.00000000
Si       Si   0.82821000  0.67179000  0.32821000  0.00000000
Si       Si   0.07821000  0.42179000  0.57821000  0.00000000
Si       Si   0.82821000  0.32821000  0.17179000  0.00000000
C        C    0.11446000  0.61446000  0.88554000  0.00000000
C        C    0.13554000  0.86446000  0.36446000  0.00000000
C        C    0.13554000  0.13554000  0.13554000  0.00000000
C        C    0.61446000  0.88554000  0.11446000  0.00000000
C        C    0.38554000  0.61446000  0.11446000  0.00000000
C        C    0.63554000  0.63554000  0.63554000  0.00000000
C        C    0.38554000  0.38554000  0.38554000  0.00000000
C        C    0.36446000  0.13554000  0.86446000  0.00000000
C        C    0.88554000  0.11446000  0.61446000  0.00000000
C        C    0.88554000  0.88554000  0.88554000  0.00000000
C        C    0.61446000  0.11446000  0.38554000  0.00000000
C        C    0.36446000  0.86446000  0.63554000  0.00000000
C        C    0.63554000  0.36446000  0.86446000  0.00000000
C        C    0.86446000  0.63554000  0.36446000  0.00000000
C        C    0.11446000  0.38554000  0.61446000  0.00000000
C        C    0.86446000  0.36446000  0.13554000  0.00000000
O        O    0.17353000  0.22541000  0.14915000  0.00000000
O        O    0.42353000  0.39915000  0.47541000  0.00000000
O        O    0.17353000  0.77459000  0.35085000  0.00000000
O        O    0.52459000  0.92353000  0.10085000  0.00000000
O        O    0.07647000  0.60085000  0.97541000  0.00000000
O        O    0.22541000  0.14915000  0.17353000  0.00000000
O        O    0.47541000  0.57647000  0.10085000  0.00000000
O        O    0.42353000  0.60085000  0.02459000  0.00000000
O        O    0.85085000  0.32647000  0.22541000  0.00000000
O        O    0.72541000  0.64915000  0.67353000  0.00000000
O        O    0.14915000  0.82647000  0.27459000  0.00000000
O        O    0.27459000  0.14915000  0.82647000  0.00000000
O        O    0.77459000  0.64915000  0.32647000  0.00000000
O        O    0.67353000  0.72541000  0.64915000  0.00000000
O        O    0.77459000  0.35085000  0.17353000  0.00000000
O        O    0.60085000  0.02459000  0.42353000  0.00000000
O        O    0.10085000  0.52459000  0.92353000  0.00000000
O        O    0.02459000  0.57647000  0.89915000  0.00000000
O        O    0.22541000  0.85085000  0.32647000  0.00000000
O        O    0.72541000  0.35085000  0.82647000  0.00000000
O        O    0.57647000  0.89915000  0.02459000  0.00000000
O        O    0.39915000  0.47541000  0.42353000  0.00000000
O        O    0.52459000  0.07647000  0.39915000  0.00000000
O        O    0.14915000  0.17353000  0.22541000  0.00000000
O        O    0.97541000  0.92353000  0.89915000  0.00000000
O        O    0.89915000  0.97541000  0.92353000  0.00000000
O        O    0.07647000  0.39915000  0.52459000  0.00000000
O        O    0.60085000  0.97541000  0.07647000  0.00000000
O        O    0.89915000  0.02459000  0.57647000  0.00000000
O        O    0.27459000  0.85085000  0.67353000  0.00000000
O        O    0.39915000  0.52459000  0.07647000  0.00000000
O        O    0.32647000  0.22541000  0.85085000  0.00000000
O        O    0.64915000  0.67353000  0.72541000  0.00000000
O        O    0.97541000  0.07647000  0.60085000  0.00000000
O        O    0.82647000  0.72541000  0.35085000  0.00000000
O        O    0.32647000  0.77459000  0.64915000  0.00000000
O        O    0.47541000  0.42353000  0.39915000  0.00000000
O        O    0.35085000  0.17353000  0.77459000  0.00000000
O        O    0.92353000  0.10085000  0.52459000  0.00000000
O        O    0.64915000  0.32647000  0.77459000  0.00000000
O        O    0.92353000  0.89915000  0.97541000  0.00000000
O        O    0.57647000  0.10085000  0.47541000  0.00000000
O        O    0.35085000  0.82647000  0.72541000  0.00000000
O        O    0.67353000  0.27459000  0.85085000  0.00000000
O        O    0.85085000  0.67353000  0.27459000  0.00000000
O        O    0.02459000  0.42353000  0.60085000  0.00000000
O        O    0.10085000  0.47541000  0.57647000  0.00000000
O        O    0.82647000  0.27459000  0.14915000  0.00000000
C        C    0.31973000  0.25543000  0.26781000  0.00000000
C        C    0.56973000  0.51781000  0.50543000  0.00000000
C        C    0.31973000  0.74457000  0.23219000  0.00000000
C        C    0.49457000  0.06973000  0.98219000  0.00000000
C        C    0.93027000  0.48219000  0.00543000  0.00000000
C        C    0.25543000  0.26781000  0.31973000  0.00000000
C        C    0.50543000  0.43027000  0.98219000  0.00000000
C        C    0.56973000  0.48219000  0.99457000  0.00000000
C        C    0.73219000  0.18027000  0.25543000  0.00000000
C        C    0.75543000  0.76781000  0.81973000  0.00000000
C        C    0.26781000  0.68027000  0.24457000  0.00000000
C        C    0.24457000  0.26781000  0.68027000  0.00000000
C        C    0.74457000  0.76781000  0.18027000  0.00000000
C        C    0.81973000  0.75543000  0.76781000  0.00000000
C        C    0.74457000  0.23219000  0.31973000  0.00000000
C        C    0.48219000  0.99457000  0.56973000  0.00000000
C        C    0.98219000  0.49457000  0.06973000  0.00000000
C        C    0.99457000  0.43027000  0.01781000  0.00000000
C        C    0.25543000  0.73219000  0.18027000  0.00000000
C        C    0.75543000  0.23219000  0.68027000  0.00000000
C        C    0.43027000  0.01781000  0.99457000  0.00000000
C        C    0.51781000  0.50543000  0.56973000  0.00000000
C        C    0.49457000  0.93027000  0.51781000  0.00000000
C        C    0.26781000  0.31973000  0.25543000  0.00000000
C        C    0.00543000  0.06973000  0.01781000  0.00000000
C        C    0.01781000  0.00543000  0.06973000  0.00000000
C        C    0.93027000  0.51781000  0.49457000  0.00000000
C        C    0.48219000  0.00543000  0.93027000  0.00000000
C        C    0.01781000  0.99457000  0.43027000  0.00000000
C        C    0.24457000  0.73219000  0.81973000  0.00000000
C        C    0.51781000  0.49457000  0.93027000  0.00000000
C        C    0.18027000  0.25543000  0.73219000  0.00000000
C        C    0.76781000  0.81973000  0.75543000  0.00000000
C        C    0.00543000  0.93027000  0.48219000  0.00000000
C        C    0.68027000  0.75543000  0.23219000  0.00000000
C        C    0.18027000  0.74457000  0.76781000  0.00000000
C        C    0.50543000  0.56973000  0.51781000  0.00000000
C        C    0.23219000  0.31973000  0.74457000  0.00000000
C        C    0.06973000  0.98219000  0.49457000  0.00000000
C        C    0.76781000  0.18027000  0.74457000  0.00000000
C        C    0.06973000  0.01781000  0.00543000  0.00000000
C        C    0.43027000  0.98219000  0.50543000  0.00000000
C        C    0.23219000  0.68027000  0.75543000  0.00000000
C        C    0.81973000  0.24457000  0.73219000  0.00000000
C        C    0.73219000  0.81973000  0.24457000  0.00000000
C        C    0.99457000  0.56973000  0.48219000  0.00000000
C        C    0.98219000  0.50543000  0.43027000  0.00000000
C        C    0.68027000  0.24457000  0.26781000  0.00000000
C        C    0.15449000  0.13501000  0.08812000  0.00000000
C        C    0.40449000  0.33812000  0.38501000  0.00000000
C        C    0.15449000  0.86499000  0.41188000  0.00000000
C        C    0.61499000  0.90449000  0.16188000  0.00000000
C        C    0.09551000  0.66188000  0.88501000  0.00000000
C        C    0.13501000  0.08812000  0.15449000  0.00000000
C        C    0.38501000  0.59551000  0.16188000  0.00000000
C        C    0.40449000  0.66188000  0.11499000  0.00000000
C        C    0.91188000  0.34551000  0.13501000  0.00000000
C        C    0.63501000  0.58812000  0.65449000  0.00000000
C        C    0.08812000  0.84551000  0.36499000  0.00000000
C        C    0.36499000  0.08812000  0.84551000  0.00000000
C        C    0.86499000  0.58812000  0.34551000  0.00000000
C        C    0.65449000  0.63501000  0.58812000  0.00000000
C        C    0.86499000  0.41188000  0.15449000  0.00000000
C        C    0.66188000  0.11499000  0.40449000  0.00000000
C        C    0.16188000  0.61499000  0.90449000  0.00000000
C        C    0.11499000  0.59551000  0.83812000  0.00000000
C        C    0.13501000  0.91188000  0.34551000  0.00000000
C        C    0.63501000  0.41188000  0.84551000  0.00000000
C        C    0.59551000  0.83812000  0.11499000  0.00000000
C        C    0.33812000  0.38501000  0.40449000  0.00000000
C        C    0.61499000  0.09551000  0.33812000  0.00000000
C        C    0.08812000  0.15449000  0.13501000  0.00000000
C        C    0.88501000  0.90449000  0.83812000  0.00000000
C        C    0.83812000  0.88501000  0.90449000  0.00000000
C        C    0.09551000  0.33812000  0.61499000  0.00000000
C        C    0.66188000  0.88501000  0.09551000  0.00000000
C        C    0.83812000  0.11499000  0.59551000  0.00000000
C        C    0.36499000  0.91188000  0.65449000  0.00000000
C        C    0.33812000  0.61499000  0.09551000  0.00000000
C        C    0.34551000  0.13501000  0.91188000  0.00000000
C        C    0.58812000  0.65449000  0.63501000  0.00000000
C        C    0.88501000  0.09551000  0.66188000  0.00000000
C        C    0.84551000  0.63501000  0.41188000  0.00000000
C        C    0.34551000  0.86499000  0.58812000  0.00000000
C        C    0.38501000  0.40449000  0.33812000  0.00000000
C        C    0.41188000  0.15449000  0.86499000  0.00000000
C        C    0.90449000  0.16188000  0.61499000  0.00000000
C        C    0.58812000  0.34551000  0.86499000  0.00000000
C        C    0.90449000  0.83812000  0.88501000  0.00000000
C        C    0.59551000  0.16188000  0.38501000  0.00000000
C        C    0.41188000  0.84551000  0.63501000  0.00000000
C        C    0.65449000  0.36499000  0.91188000  0.00000000
C        C    0.91188000  0.65449000  0.36499000  0.00000000
C        C    0.11499000  0.40449000  0.66188000  0.00000000
C        C    0.16188000  0.38501000  0.59551000  0.00000000
C        C    0.84551000  0.36499000  0.08812000  0.00000000
H        H    0.34175000  0.27630000  0.28885000  0.00000000
H        H    0.59175000  0.53885000  0.52630000  0.00000000
H        H    0.34175000  0.72370000  0.21115000  0.00000000
H        H    0.47370000  0.09175000  0.96115000  0.00000000
H        H    0.90825000  0.46115000  0.02630000  0.00000000
H        H    0.27630000  0.28885000  0.34175000  0.00000000
H        H    0.52630000  0.40825000  0.96115000  0.00000000
H        H    0.59175000  0.46115000  0.97370000  0.00000000
H        H    0.71115000  0.15825000  0.27630000  0.00000000
H        H    0.77630000  0.78885000  0.84175000  0.00000000
H        H    0.28885000  0.65825000  0.22370000  0.00000000
H        H    0.22370000  0.28885000  0.65825000  0.00000000
H        H    0.72370000  0.78885000  0.15825000  0.00000000
H        H    0.84175000  0.77630000  0.78885000  0.00000000
H        H    0.72370000  0.21115000  0.34175000  0.00000000
H        H    0.46115000  0.97370000  0.59175000  0.00000000
H        H    0.96115000  0.47370000  0.09175000  0.00000000
H        H    0.97370000  0.40825000  0.03885000  0.00000000
H        H    0.27630000  0.71115000  0.15825000  0.00000000
H        H    0.77630000  0.21115000  0.65825000  0.00000000
H        H    0.40825000  0.03885000  0.97370000  0.00000000
H        H    0.53885000  0.52630000  0.59175000  0.00000000
H        H    0.47370000  0.90825000  0.53885000  0.00000000
H        H    0.28885000  0.34175000  0.27630000  0.00000000
H        H    0.02630000  0.09175000  0.03885000  0.00000000
H        H    0.03885000  0.02630000  0.09175000  0.00000000
H        H    0.90825000  0.53885000  0.47370000  0.00000000
H        H    0.46115000  0.02630000  0.90825000  0.00000000
H        H    0.03885000  0.97370000  0.40825000  0.00000000
H        H    0.22370000  0.71115000  0.84175000  0.00000000
H        H    0.53885000  0.47370000  0.90825000  0.00000000
H        H    0.15825000  0.27630000  0.71115000  0.00000000
H        H    0.78885000  0.84175000  0.77630000  0.00000000
H        H    0.02630000  0.90825000  0.46115000  0.00000000
H        H    0.65825000  0.77630000  0.21115000  0.00000000
H        H    0.15825000  0.72370000  0.78885000  0.00000000
H        H    0.52630000  0.59175000  0.53885000  0.00000000
H        H    0.21115000  0.34175000  0.72370000  0.00000000
H        H    0.09175000  0.96115000  0.47370000  0.00000000
H        H    0.78885000  0.15825000  0.72370000  0.00000000
H        H    0.09175000  0.03885000  0.02630000  0.00000000
H        H    0.40825000  0.96115000  0.52630000  0.00000000
H        H    0.21115000  0.65825000  0.77630000  0.00000000
H        H    0.84175000  0.22370000  0.71115000  0.00000000
H        H    0.71115000  0.84175000  0.22370000  0.00000000
H        H    0.97370000  0.59175000  0.46115000  0.00000000
H        H    0.96115000  0.52630000  0.40825000  0.00000000
H        H    0.65825000  0.22370000  0.28885000  0.00000000
H        H    0.32284000  0.22039000  0.27905000  0.00000000
H        H    0.57284000  0.52905000  0.47039000  0.00000000
H        H    0.32284000  0.77961000  0.22095000  0.00000000
H        H    0.52961000  0.07284000  0.97095000  0.00000000
H        H    0.92716000  0.47095000  0.97039000  0.00000000
H        H    0.22039000  0.27905000  0.32284000  0.00000000
H        H    0.47039000  0.42716000  0.97095000  0.00000000
H        H    0.57284000  0.47095000  0.02961000  0.00000000
H        H    0.72095000  0.17716000  0.22039000  0.00000000
H        H    0.72039000  0.77905000  0.82284000  0.00000000
H        H    0.27905000  0.67716000  0.27961000  0.00000000
H        H    0.27961000  0.27905000  0.67716000  0.00000000
H        H    0.77961000  0.77905000  0.17716000  0.00000000
H        H    0.82284000  0.72039000  0.77905000  0.00000000
H        H    0.77961000  0.22095000  0.32284000  0.00000000
H        H    0.47095000  0.02961000  0.57284000  0.00000000
H        H    0.97095000  0.52961000  0.07284000  0.00000000
H        H    0.02961000  0.42716000  0.02905000  0.00000000
H        H    0.22039000  0.72095000  0.17716000  0.00000000
H        H    0.72039000  0.22095000  0.67716000  0.00000000
H        H    0.42716000  0.02905000  0.02961000  0.00000000
H        H    0.52905000  0.47039000  0.57284000  0.00000000
H        H    0.52961000  0.92716000  0.52905000  0.00000000
H        H    0.27905000  0.32284000  0.22039000  0.00000000
H        H    0.97039000  0.07284000  0.02905000  0.00000000
H        H    0.02905000  0.97039000  0.07284000  0.00000000
H        H    0.92716000  0.52905000  0.52961000  0.00000000
H        H    0.47095000  0.97039000  0.92716000  0.00000000
H        H    0.02905000  0.02961000  0.42716000  0.00000000
H        H    0.27961000  0.72095000  0.82284000  0.00000000
H        H    0.52905000  0.52961000  0.92716000  0.00000000
H        H    0.17716000  0.22039000  0.72095000  0.00000000
H        H    0.77905000  0.82284000  0.72039000  0.00000000
H        H    0.97039000  0.92716000  0.47095000  0.00000000
H        H    0.67716000  0.72039000  0.22095000  0.00000000
H        H    0.17716000  0.77961000  0.77905000  0.00000000
H        H    0.47039000  0.57284000  0.52905000  0.00000000
H        H    0.22095000  0.32284000  0.77961000  0.00000000
H        H    0.07284000  0.97095000  0.52961000  0.00000000
H        H    0.77905000  0.17716000  0.77961000  0.00000000
H        H    0.07284000  0.02905000  0.97039000  0.00000000
H        H    0.42716000  0.97095000  0.47039000  0.00000000
H        H    0.22095000  0.67716000  0.72039000  0.00000000
H        H    0.82284000  0.27961000  0.72095000  0.00000000
H        H    0.72095000  0.82284000  0.27961000  0.00000000
H        H    0.02961000  0.57284000  0.47095000  0.00000000
H        H    0.97095000  0.47039000  0.42716000  0.00000000
H        H    0.67716000  0.27961000  0.27905000  0.00000000
H        H    0.33167000  0.25757000  0.23293000  0.00000000
H        H    0.58167000  0.48293000  0.50757000  0.00000000
H        H    0.33167000  0.74243000  0.26707000  0.00000000
H        H    0.49243000  0.08167000  0.01707000  0.00000000
H        H    0.91833000  0.51707000  0.00757000  0.00000000
H        H    0.25757000  0.23293000  0.33167000  0.00000000
H        H    0.50757000  0.41833000  0.01707000  0.00000000
H        H    0.58167000  0.51707000  0.99243000  0.00000000
H        H    0.76707000  0.16833000  0.25757000  0.00000000
H        H    0.75757000  0.73293000  0.83167000  0.00000000
H        H    0.23293000  0.66833000  0.24243000  0.00000000
H        H    0.24243000  0.23293000  0.66833000  0.00000000
H        H    0.74243000  0.73293000  0.16833000  0.00000000
H        H    0.83167000  0.75757000  0.73293000  0.00000000
H        H    0.74243000  0.26707000  0.33167000  0.00000000
H        H    0.51707000  0.99243000  0.58167000  0.00000000
H        H    0.01707000  0.49243000  0.08167000  0.00000000
H        H    0.99243000  0.41833000  0.98293000  0.00000000
H        H    0.25757000  0.76707000  0.16833000  0.00000000
H        H    0.75757000  0.26707000  0.66833000  0.00000000
H        H    0.41833000  0.98293000  0.99243000  0.00000000
H        H    0.48293000  0.50757000  0.58167000  0.00000000
H        H    0.49243000  0.91833000  0.48293000  0.00000000
H        H    0.23293000  0.33167000  0.25757000  0.00000000
H        H    0.00757000  0.08167000  0.98293000  0.00000000
H        H    0.98293000  0.00757000  0.08167000  0.00000000
H        H    0.91833000  0.48293000  0.49243000  0.00000000
H        H    0.51707000  0.00757000  0.91833000  0.00000000
H        H    0.98293000  0.99243000  0.41833000  0.00000000
H        H    0.24243000  0.76707000  0.83167000  0.00000000
H        H    0.48293000  0.49243000  0.91833000  0.00000000
H        H    0.16833000  0.25757000  0.76707000  0.00000000
H        H    0.73293000  0.83167000  0.75757000  0.00000000
H        H    0.00757000  0.91833000  0.51707000  0.00000000
H        H    0.66833000  0.75757000  0.26707000  0.00000000
H        H    0.16833000  0.74243000  0.73293000  0.00000000
H        H    0.50757000  0.58167000  0.48293000  0.00000000
H        H    0.26707000  0.33167000  0.74243000  0.00000000
H        H    0.08167000  0.01707000  0.49243000  0.00000000
H        H    0.73293000  0.16833000  0.74243000  0.00000000
H        H    0.08167000  0.98293000  0.00757000  0.00000000
H        H    0.41833000  0.01707000  0.50757000  0.00000000
H        H    0.26707000  0.66833000  0.75757000  0.00000000
H        H    0.83167000  0.24243000  0.76707000  0.00000000
H        H    0.76707000  0.83167000  0.24243000  0.00000000
H        H    0.99243000  0.58167000  0.51707000  0.00000000
H        H    0.01707000  0.50757000  0.41833000  0.00000000
H        H    0.66833000  0.24243000  0.23293000  0.00000000
H        H    0.13368000  0.11387000  0.06612000  0.00000000
H        H    0.38368000  0.31612000  0.36387000  0.00000000
H        H    0.13368000  0.88613000  0.43388000  0.00000000
H        H    0.63613000  0.88368000  0.18388000  0.00000000
H        H    0.11632000  0.68388000  0.86387000  0.00000000
H        H    0.11387000  0.06612000  0.13368000  0.00000000
H        H    0.36387000  0.61632000  0.18388000  0.00000000
H        H    0.38368000  0.68388000  0.13613000  0.00000000
H        H    0.93388000  0.36632000  0.11387000  0.00000000
H        H    0.61387000  0.56612000  0.63368000  0.00000000
H        H    0.06612000  0.86632000  0.38613000  0.00000000
H        H    0.38613000  0.06612000  0.86632000  0.00000000
H        H    0.88613000  0.56612000  0.36632000  0.00000000
H        H    0.63368000  0.61387000  0.56612000  0.00000000
H        H    0.88613000  0.43388000  0.13368000  0.00000000
H        H    0.68388000  0.13613000  0.38368000  0.00000000
H        H    0.18388000  0.63613000  0.88368000  0.00000000
H        H    0.13613000  0.61632000  0.81612000  0.00000000
H        H    0.11387000  0.93388000  0.36632000  0.00000000
H        H    0.61387000  0.43388000  0.86632000  0.00000000
H        H    0.61632000  0.81612000  0.13613000  0.00000000
H        H    0.31612000  0.36387000  0.38368000  0.00000000
H        H    0.63613000  0.11632000  0.31612000  0.00000000
H        H    0.06612000  0.13368000  0.11387000  0.00000000
H        H    0.86387000  0.88368000  0.81612000  0.00000000
H        H    0.81612000  0.86387000  0.88368000  0.00000000
H        H    0.11632000  0.31612000  0.63613000  0.00000000
H        H    0.68388000  0.86387000  0.11632000  0.00000000
H        H    0.81612000  0.13613000  0.61632000  0.00000000
H        H    0.38613000  0.93388000  0.63368000  0.00000000
H        H    0.31612000  0.63613000  0.11632000  0.00000000
H        H    0.36632000  0.11387000  0.93388000  0.00000000
H        H    0.56612000  0.63368000  0.61387000  0.00000000
H        H    0.86387000  0.11632000  0.68388000  0.00000000
H        H    0.86632000  0.61387000  0.43388000  0.00000000
H        H    0.36632000  0.88613000  0.56612000  0.00000000
H        H    0.36387000  0.38368000  0.31612000  0.00000000
H        H    0.43388000  0.13368000  0.88613000  0.00000000
H        H    0.88368000  0.18388000  0.63613000  0.00000000
H        H    0.56612000  0.36632000  0.88613000  0.00000000
H        H    0.88368000  0.81612000  0.86387000  0.00000000
H        H    0.61632000  0.18388000  0.36387000  0.00000000
H        H    0.43388000  0.86632000  0.61387000  0.00000000
H        H    0.63368000  0.38613000  0.93388000  0.00000000
H        H    0.93388000  0.63368000  0.38613000  0.00000000
H        H    0.13613000  0.38368000  0.68388000  0.00000000
H        H    0.18388000  0.36387000  0.61632000  0.00000000
H        H    0.86632000  0.38613000  0.06612000  0.00000000
H        H    0.15528000  0.16911000  0.07397000  0.00000000
H        H    0.40528000  0.32397000  0.41911000  0.00000000
H        H    0.15528000  0.83089000  0.42603000  0.00000000
H        H    0.58089000  0.90528000  0.17603000  0.00000000
H        H    0.09472000  0.67603000  0.91911000  0.00000000
H        H    0.16911000  0.07397000  0.15528000  0.00000000
H        H    0.41911000  0.59472000  0.17603000  0.00000000
H        H    0.40528000  0.67603000  0.08089000  0.00000000
H        H    0.92603000  0.34472000  0.16911000  0.00000000
H        H    0.66911000  0.57397000  0.65528000  0.00000000
H        H    0.07397000  0.84472000  0.33089000  0.00000000
H        H    0.33089000  0.07397000  0.84472000  0.00000000
H        H    0.83089000  0.57397000  0.34472000  0.00000000
H        H    0.65528000  0.66911000  0.57397000  0.00000000
H        H    0.83089000  0.42603000  0.15528000  0.00000000
H        H    0.67603000  0.08089000  0.40528000  0.00000000
H        H    0.17603000  0.58089000  0.90528000  0.00000000
H        H    0.08089000  0.59472000  0.82397000  0.00000000
H        H    0.16911000  0.92603000  0.34472000  0.00000000
H        H    0.66911000  0.42603000  0.84472000  0.00000000
H        H    0.59472000  0.82397000  0.08089000  0.00000000
H        H    0.32397000  0.41911000  0.40528000  0.00000000
H        H    0.58089000  0.09472000  0.32397000  0.00000000
H        H    0.07397000  0.15528000  0.16911000  0.00000000
H        H    0.91911000  0.90528000  0.82397000  0.00000000
H        H    0.82397000  0.91911000  0.90528000  0.00000000
H        H    0.09472000  0.32397000  0.58089000  0.00000000
H        H    0.67603000  0.91911000  0.09472000  0.00000000
H        H    0.82397000  0.08089000  0.59472000  0.00000000
H        H    0.33089000  0.92603000  0.65528000  0.00000000
H        H    0.32397000  0.58089000  0.09472000  0.00000000
H        H    0.34472000  0.16911000  0.92603000  0.00000000
H        H    0.57397000  0.65528000  0.66911000  0.00000000
H        H    0.91911000  0.09472000  0.67603000  0.00000000
H        H    0.84472000  0.66911000  0.42603000  0.00000000
H        H    0.34472000  0.83089000  0.57397000  0.00000000
H        H    0.41911000  0.40528000  0.32397000  0.00000000
H        H    0.42603000  0.15528000  0.83089000  0.00000000
H        H    0.90528000  0.17603000  0.58089000  0.00000000
H        H    0.57397000  0.34472000  0.83089000  0.00000000
H        H    0.90528000  0.82397000  0.91911000  0.00000000
H        H    0.59472000  0.17603000  0.41911000  0.00000000
H        H    0.42603000  0.84472000  0.66911000  0.00000000
H        H    0.65528000  0.33089000  0.92603000  0.00000000
H        H    0.92603000  0.65528000  0.33089000  0.00000000
H        H    0.08089000  0.40528000  0.67603000  0.00000000
H        H    0.17603000  0.41911000  0.59472000  0.00000000
H        H    0.84472000  0.33089000  0.07397000  0.00000000
H        H    0.18886000  0.12153000  0.08794000  0.00000000
H        H    0.43886000  0.33794000  0.37153000  0.00000000
H        H    0.18886000  0.87847000  0.41206000  0.00000000
H        H    0.62847000  0.93886000  0.16206000  0.00000000
H        H    0.06114000  0.66206000  0.87153000  0.00000000
H        H    0.12153000  0.08794000  0.18886000  0.00000000
H        H    0.37153000  0.56114000  0.16206000  0.00000000
H        H    0.43886000  0.66206000  0.12847000  0.00000000
H        H    0.91206000  0.31114000  0.12153000  0.00000000
H        H    0.62153000  0.58794000  0.68886000  0.00000000
H        H    0.08794000  0.81114000  0.37847000  0.00000000
H        H    0.37847000  0.08794000  0.81114000  0.00000000
H        H    0.87847000  0.58794000  0.31114000  0.00000000
H        H    0.68886000  0.62153000  0.58794000  0.00000000
H        H    0.87847000  0.41206000  0.18886000  0.00000000
H        H    0.66206000  0.12847000  0.43886000  0.00000000
H        H    0.16206000  0.62847000  0.93886000  0.00000000
H        H    0.12847000  0.56114000  0.83794000  0.00000000
H        H    0.12153000  0.91206000  0.31114000  0.00000000
H        H    0.62153000  0.41206000  0.81114000  0.00000000
H        H    0.56114000  0.83794000  0.12847000  0.00000000
H        H    0.33794000  0.37153000  0.43886000  0.00000000
H        H    0.62847000  0.06114000  0.33794000  0.00000000
H        H    0.08794000  0.18886000  0.12153000  0.00000000
H        H    0.87153000  0.93886000  0.83794000  0.00000000
H        H    0.83794000  0.87153000  0.93886000  0.00000000
H        H    0.06114000  0.33794000  0.62847000  0.00000000
H        H    0.66206000  0.87153000  0.06114000  0.00000000
H        H    0.83794000  0.12847000  0.56114000  0.00000000
H        H    0.37847000  0.91206000  0.68886000  0.00000000
H        H    0.33794000  0.62847000  0.06114000  0.00000000
H        H    0.31114000  0.12153000  0.91206000  0.00000000
H        H    0.58794000  0.68886000  0.62153000  0.00000000
H        H    0.87153000  0.06114000  0.66206000  0.00000000
H        H    0.81114000  0.62153000  0.41206000  0.00000000
H        H    0.31114000  0.87847000  0.58794000  0.00000000
H        H    0.37153000  0.43886000  0.33794000  0.00000000
H        H    0.41206000  0.18886000  0.87847000  0.00000000
H        H    0.93886000  0.16206000  0.62847000  0.00000000
H        H    0.58794000  0.31114000  0.87847000  0.00000000
H        H    0.93886000  0.83794000  0.87153000  0.00000000
H        H    0.56114000  0.16206000  0.37153000  0.00000000
H        H    0.41206000  0.81114000  0.62153000  0.00000000
H        H    0.68886000  0.37847000  0.91206000  0.00000000
H        H    0.91206000  0.68886000  0.37847000  0.00000000
H        H    0.12847000  0.43886000  0.66206000  0.00000000
H        H    0.16206000  0.37153000  0.56114000  0.00000000
H        H    0.81114000  0.37847000  0.08794000  0.00000000
H        H    0.17734000  0.32173000  0.01519000  0.00000000
H        H    0.42734000  0.26519000  0.57173000  0.00000000
H        H    0.17734000  0.67827000  0.48481000  0.00000000
H        H    0.42827000  0.92734000  0.23481000  0.00000000
H        H    0.07266000  0.73481000  0.07173000  0.00000000
H        H    0.32173000  0.01519000  0.17734000  0.00000000
H        H    0.57173000  0.57266000  0.23481000  0.00000000
H        H    0.42734000  0.73481000  0.92827000  0.00000000
H        H    0.98481000  0.32266000  0.32173000  0.00000000
H        H    0.82173000  0.51519000  0.67734000  0.00000000
H        H    0.01519000  0.82266000  0.17827000  0.00000000
H        H    0.17827000  0.01519000  0.82266000  0.00000000
H        H    0.67827000  0.51519000  0.32266000  0.00000000
H        H    0.67734000  0.82173000  0.51519000  0.00000000
H        H    0.67827000  0.48481000  0.17734000  0.00000000
H        H    0.73481000  0.92827000  0.42734000  0.00000000
H        H    0.23481000  0.42827000  0.92734000  0.00000000
H        H    0.92827000  0.57266000  0.76519000  0.00000000
H        H    0.32173000  0.98481000  0.32266000  0.00000000
H        H    0.82173000  0.48481000  0.82266000  0.00000000
H        H    0.57266000  0.76519000  0.92827000  0.00000000
H        H    0.26519000  0.57173000  0.42734000  0.00000000
H        H    0.42827000  0.07266000  0.26519000  0.00000000
H        H    0.01519000  0.17734000  0.32173000  0.00000000
H        H    0.07173000  0.92734000  0.76519000  0.00000000
H        H    0.76519000  0.07173000  0.92734000  0.00000000
H        H    0.07266000  0.26519000  0.42827000  0.00000000
H        H    0.73481000  0.07173000  0.07266000  0.00000000
H        H    0.76519000  0.92827000  0.57266000  0.00000000
H        H    0.17827000  0.98481000  0.67734000  0.00000000
H        H    0.26519000  0.42827000  0.07266000  0.00000000
H        H    0.32266000  0.32173000  0.98481000  0.00000000
H        H    0.51519000  0.67734000  0.82173000  0.00000000
H        H    0.07173000  0.07266000  0.73481000  0.00000000
H        H    0.82266000  0.82173000  0.48481000  0.00000000
H        H    0.32266000  0.67827000  0.51519000  0.00000000
H        H    0.57173000  0.42734000  0.26519000  0.00000000
H        H    0.48481000  0.17734000  0.67827000  0.00000000
H        H    0.92734000  0.23481000  0.42827000  0.00000000
H        H    0.51519000  0.32266000  0.67827000  0.00000000
H        H    0.92734000  0.76519000  0.07173000  0.00000000
H        H    0.57266000  0.23481000  0.57173000  0.00000000
H        H    0.48481000  0.82266000  0.82173000  0.00000000
H        H    0.67734000  0.17827000  0.98481000  0.00000000
H        H    0.98481000  0.67734000  0.17827000  0.00000000
H        H    0.92827000  0.42734000  0.73481000  0.00000000
H        H    0.23481000  0.57173000  0.57266000  0.00000000
H        H    0.82266000  0.17827000  0.01519000  0.00000000
H        H    0.30704000  0.34941000  0.07045000  0.00000000
H        H    0.55704000  0.32045000  0.59941000  0.00000000
H        H    0.30704000  0.65059000  0.42955000  0.00000000
H        H    0.40059000  0.05704000  0.17955000  0.00000000
H        H    0.94296000  0.67955000  0.09941000  0.00000000
H        H    0.34941000  0.07045000  0.30704000  0.00000000
H        H    0.59941000  0.44296000  0.17955000  0.00000000
H        H    0.55704000  0.67955000  0.90059000  0.00000000
H        H    0.92955000  0.19296000  0.34941000  0.00000000
H        H    0.84941000  0.57045000  0.80704000  0.00000000
H        H    0.07045000  0.69296000  0.15059000  0.00000000
H        H    0.15059000  0.07045000  0.69296000  0.00000000
H        H    0.65059000  0.57045000  0.19296000  0.00000000
H        H    0.80704000  0.84941000  0.57045000  0.00000000
H        H    0.65059000  0.42955000  0.30704000  0.00000000
H        H    0.67955000  0.90059000  0.55704000  0.00000000
H        H    0.17955000  0.40059000  0.05704000  0.00000000
H        H    0.90059000  0.44296000  0.82045000  0.00000000
H        H    0.34941000  0.92955000  0.19296000  0.00000000
H        H    0.84941000  0.42955000  0.69296000  0.00000000
H        H    0.44296000  0.82045000  0.90059000  0.00000000
H        H    0.32045000  0.59941000  0.55704000  0.00000000
H        H    0.40059000  0.94296000  0.32045000  0.00000000
H        H    0.07045000  0.30704000  0.34941000  0.00000000
H        H    0.09941000  0.05704000  0.82045000  0.00000000
H        H    0.82045000  0.09941000  0.05704000  0.00000000
H        H    0.94296000  0.32045000  0.40059000  0.00000000
H        H    0.67955000  0.09941000  0.94296000  0.00000000
H        H    0.82045000  0.90059000  0.44296000  0.00000000
H        H    0.15059000  0.92955000  0.80704000  0.00000000
H        H    0.32045000  0.40059000  0.94296000  0.00000000
H        H    0.19296000  0.34941000  0.92955000  0.00000000
H        H    0.57045000  0.80704000  0.84941000  0.00000000
H        H    0.09941000  0.94296000  0.67955000  0.00000000
H        H    0.69296000  0.84941000  0.42955000  0.00000000
H        H    0.19296000  0.65059000  0.57045000  0.00000000
H        H    0.59941000  0.55704000  0.32045000  0.00000000
H        H    0.42955000  0.30704000  0.65059000  0.00000000
H        H    0.05704000  0.17955000  0.40059000  0.00000000
H        H    0.57045000  0.19296000  0.65059000  0.00000000
H        H    0.05704000  0.82045000  0.09941000  0.00000000
H        H    0.44296000  0.17955000  0.59941000  0.00000000
H        H    0.42955000  0.69296000  0.84941000  0.00000000
H        H    0.80704000  0.15059000  0.92955000  0.00000000
H        H    0.92955000  0.80704000  0.15059000  0.00000000
H        H    0.90059000  0.55704000  0.67955000  0.00000000
H        H    0.17955000  0.59941000  0.44296000  0.00000000
H        H    0.69296000  0.15059000  0.07045000  0.00000000
H        H    0.16341000  0.26918000  0.07508000  0.00000000
H        H    0.41341000  0.32508000  0.51918000  0.00000000
H        H    0.16341000  0.73082000  0.42492000  0.00000000
H        H    0.48082000  0.91341000  0.17492000  0.00000000
H        H    0.08659000  0.67492000  0.01918000  0.00000000
H        H    0.26918000  0.07508000  0.16341000  0.00000000
H        H    0.51918000  0.58659000  0.17492000  0.00000000
H        H    0.41341000  0.67492000  0.98082000  0.00000000
H        H    0.92492000  0.33659000  0.26918000  0.00000000
H        H    0.76918000  0.57508000  0.66341000  0.00000000
H        H    0.07508000  0.83659000  0.23082000  0.00000000
H        H    0.23082000  0.07508000  0.83659000  0.00000000
H        H    0.73082000  0.57508000  0.33659000  0.00000000
H        H    0.66341000  0.76918000  0.57508000  0.00000000
H        H    0.73082000  0.42492000  0.16341000  0.00000000
H        H    0.67492000  0.98082000  0.41341000  0.00000000
H        H    0.17492000  0.48082000  0.91341000  0.00000000
H        H    0.98082000  0.58659000  0.82508000  0.00000000
H        H    0.26918000  0.92492000  0.33659000  0.00000000
H        H    0.76918000  0.42492000  0.83659000  0.00000000
H        H    0.58659000  0.82508000  0.98082000  0.00000000
H        H    0.32508000  0.51918000  0.41341000  0.00000000
H        H    0.48082000  0.08659000  0.32508000  0.00000000
H        H    0.07508000  0.16341000  0.26918000  0.00000000
H        H    0.01918000  0.91341000  0.82508000  0.00000000
H        H    0.82508000  0.01918000  0.91341000  0.00000000
H        H    0.08659000  0.32508000  0.48082000  0.00000000
H        H    0.67492000  0.01918000  0.08659000  0.00000000
H        H    0.82508000  0.98082000  0.58659000  0.00000000
H        H    0.23082000  0.92492000  0.66341000  0.00000000
H        H    0.32508000  0.48082000  0.08659000  0.00000000
H        H    0.33659000  0.26918000  0.92492000  0.00000000
H        H    0.57508000  0.66341000  0.76918000  0.00000000
H        H    0.01918000  0.08659000  0.67492000  0.00000000
H        H    0.83659000  0.76918000  0.42492000  0.00000000
H        H    0.33659000  0.73082000  0.57508000  0.00000000
H        H    0.51918000  0.41341000  0.32508000  0.00000000
H        H    0.42492000  0.16341000  0.73082000  0.00000000
H        H    0.91341000  0.17492000  0.48082000  0.00000000
H        H    0.57508000  0.33659000  0.73082000  0.00000000
H        H    0.91341000  0.82508000  0.01918000  0.00000000
H        H    0.58659000  0.17492000  0.51918000  0.00000000
H        H    0.42492000  0.83659000  0.76918000  0.00000000
H        H    0.66341000  0.23082000  0.92492000  0.00000000
H        H    0.92492000  0.66341000  0.23082000  0.00000000
H        H    0.98082000  0.41341000  0.67492000  0.00000000
H        H    0.17492000  0.51918000  0.58659000  0.00000000
H        H    0.83659000  0.23082000  0.07508000  0.00000000
H        H    0.29255000  0.29792000  0.13031000  0.00000000
H        H    0.54255000  0.38031000  0.54792000  0.00000000
H        H    0.29255000  0.70208000  0.36969000  0.00000000
H        H    0.45208000  0.04255000  0.11969000  0.00000000
H        H    0.95745000  0.61969000  0.04792000  0.00000000
H        H    0.29792000  0.13031000  0.29255000  0.00000000
H        H    0.54792000  0.45745000  0.11969000  0.00000000
H        H    0.54255000  0.61969000  0.95208000  0.00000000
H        H    0.86969000  0.20745000  0.29792000  0.00000000
H        H    0.79792000  0.63031000  0.79255000  0.00000000
H        H    0.13031000  0.70745000  0.20208000  0.00000000
H        H    0.20208000  0.13031000  0.70745000  0.00000000
H        H    0.70208000  0.63031000  0.20745000  0.00000000
H        H    0.79255000  0.79792000  0.63031000  0.00000000
H        H    0.70208000  0.36969000  0.29255000  0.00000000
H        H    0.61969000  0.95208000  0.54255000  0.00000000
H        H    0.11969000  0.45208000  0.04255000  0.00000000
H        H    0.95208000  0.45745000  0.88031000  0.00000000
H        H    0.29792000  0.86969000  0.20745000  0.00000000
H        H    0.79792000  0.36969000  0.70745000  0.00000000
H        H    0.45745000  0.88031000  0.95208000  0.00000000
H        H    0.38031000  0.54792000  0.54255000  0.00000000
H        H    0.45208000  0.95745000  0.38031000  0.00000000
H        H    0.13031000  0.29255000  0.29792000  0.00000000
H        H    0.04792000  0.04255000  0.88031000  0.00000000
H        H    0.88031000  0.04792000  0.04255000  0.00000000
H        H    0.95745000  0.38031000  0.45208000  0.00000000
H        H    0.61969000  0.04792000  0.95745000  0.00000000
H        H    0.88031000  0.95208000  0.45745000  0.00000000
H        H    0.20208000  0.86969000  0.79255000  0.00000000
H        H    0.38031000  0.45208000  0.95745000  0.00000000
H        H    0.20745000  0.29792000  0.86969000  0.00000000
H        H    0.63031000  0.79255000  0.79792000  0.00000000
H        H    0.04792000  0.95745000  0.61969000  0.00000000
H        H    0.70745000  0.79792000  0.36969000  0.00000000
H        H    0.20745000  0.70208000  0.63031000  0.00000000
H        H    0.54792000  0.54255000  0.38031000  0.00000000
H        H    0.36969000  0.29255000  0.70208000  0.00000000
H        H    0.04255000  0.11969000  0.45208000  0.00000000
H        H    0.63031000  0.20745000  0.70208000  0.00000000
H        H    0.04255000  0.88031000  0.04792000  0.00000000
H        H    0.45745000  0.11969000  0.54792000  0.00000000
H        H    0.36969000  0.70745000  0.79792000  0.00000000
H        H    0.79255000  0.20208000  0.86969000  0.00000000
H        H    0.86969000  0.79255000  0.20208000  0.00000000
H        H    0.95208000  0.54255000  0.61969000  0.00000000
H        H    0.11969000  0.54792000  0.45745000  0.00000000
H        H    0.70745000  0.20208000  0.13031000  0.00000000
C        C    0.12500000  0.00000000  0.75000000  0.00000000
C        C    0.50000000  0.25000000  0.62500000  0.00000000
C        C    0.25000000  0.62500000  0.50000000  0.00000000
C        C    0.37500000  0.00000000  0.25000000  0.00000000
C        C    0.75000000  0.12500000  0.00000000  0.00000000
C        C    0.25000000  0.37500000  0.00000000  0.00000000
C        C    0.87500000  0.50000000  0.75000000  0.00000000
C        C    0.00000000  0.25000000  0.37500000  0.00000000
C        C    0.00000000  0.75000000  0.12500000  0.00000000
C        C    0.50000000  0.75000000  0.87500000  0.00000000
C        C    0.62500000  0.50000000  0.25000000  0.00000000
C        C    0.75000000  0.87500000  0.50000000  0.00000000
