data_Cu-BTC

_cell_length_a  26.34300000
_cell_length_b  26.34300000
_cell_length_c  26.34300000
_cell_angle_alpha  90.00000000
_cell_angle_beta  90.00000000
_cell_angle_gamma  90.00000000


_symmetry_space_group_name_Hall ' P 1'
_symmetry_space_group_name_H-M  'P 1'
_symmetry_Int_Tables_number     1

loop_
_atom_site_label
_atom_site_type_symbol
_atom_site_fract_x
_atom_site_fract_y
_atom_site_fract_z
_atom_site_charge
Cu       Cu   0.21470000  0.28530000  0.50000000  1.24800000
Cu       Cu   0.28530000  0.50000000  0.78530000  1.24800000
Cu       Cu   0.71470000  0.50000000  0.21470000  1.24800000
Cu       Cu   0.71470000  0.78530000  0.50000000  1.24800000
Cu       Cu   0.71470000  0.71470000  0.00000000  1.24800000
Cu       Cu   0.21470000  0.50000000  0.71470000  1.24800000
Cu       Cu   0.21470000  0.00000000  0.21470000  1.24800000
Cu       Cu   0.28530000  0.21470000  0.50000000  1.24800000
Cu       Cu   0.28530000  0.28530000  0.00000000  1.24800000
Cu       Cu   0.78530000  0.00000000  0.78530000  1.24800000
Cu       Cu   0.00000000  0.21470000  0.21470000  1.24800000
Cu       Cu   0.71470000  0.00000000  0.71470000  1.24800000
Cu       Cu   0.00000000  0.71470000  0.28530000  1.24800000
Cu       Cu   0.50000000  0.71470000  0.78530000  1.24800000
Cu       Cu   0.00000000  0.78530000  0.78530000  1.24800000
Cu       Cu   0.71470000  0.21470000  0.50000000  1.24800000
Cu       Cu   0.50000000  0.28530000  0.78530000  1.24800000
Cu       Cu   0.50000000  0.28530000  0.21470000  1.24800000
Cu       Cu   0.21470000  0.00000000  0.78530000  1.24800000
Cu       Cu   0.21470000  0.50000000  0.28530000  1.24800000
Cu       Cu   0.21470000  0.78530000  0.00000000  1.24800000
Cu       Cu   0.50000000  0.21470000  0.71470000  1.24800000
Cu       Cu   0.21470000  0.71470000  0.50000000  1.24800000
Cu       Cu   0.28530000  0.71470000  0.00000000  1.24800000
Cu       Cu   0.50000000  0.71470000  0.21470000  1.24800000
Cu       Cu   0.28530000  0.00000000  0.71470000  1.24800000
Cu       Cu   0.78530000  0.28530000  0.50000000  1.24800000
Cu       Cu   0.21470000  0.21470000  0.00000000  1.24800000
Cu       Cu   0.50000000  0.78530000  0.71470000  1.24800000
Cu       Cu   0.50000000  0.78530000  0.28530000  1.24800000
Cu       Cu   0.71470000  0.28530000  0.00000000  1.24800000
Cu       Cu   0.78530000  0.50000000  0.71470000  1.24800000
Cu       Cu   0.78530000  0.78530000  0.00000000  1.24800000
Cu       Cu   0.00000000  0.21470000  0.78530000  1.24800000
Cu       Cu   0.00000000  0.28530000  0.71470000  1.24800000
Cu       Cu   0.00000000  0.71470000  0.71470000  1.24800000
Cu       Cu   0.78530000  0.00000000  0.21470000  1.24800000
Cu       Cu   0.78530000  0.71470000  0.50000000  1.24800000
Cu       Cu   0.71470000  0.50000000  0.78530000  1.24800000
Cu       Cu   0.00000000  0.28530000  0.28530000  1.24800000
Cu       Cu   0.28530000  0.50000000  0.21470000  1.24800000
Cu       Cu   0.28530000  0.78530000  0.50000000  1.24800000
Cu       Cu   0.50000000  0.21470000  0.28530000  1.24800000
Cu       Cu   0.28530000  0.00000000  0.28530000  1.24800000
Cu       Cu   0.78530000  0.21470000  0.00000000  1.24800000
Cu       Cu   0.00000000  0.78530000  0.21470000  1.24800000
Cu       Cu   0.78530000  0.50000000  0.28530000  1.24800000
Cu       Cu   0.71470000  0.00000000  0.28530000  1.24800000
O        O    0.05220000  0.81660000  0.74310000 -0.62400000
O        O    0.18340000  0.24310000  0.55220000 -0.62400000
O        O    0.44780000  0.81660000  0.75690000 -0.62400000
O        O    0.24310000  0.94780000  0.68340000 -0.62400000
O        O    0.68340000  0.25690000  0.55220000 -0.62400000
O        O    0.75690000  0.68340000  0.05220000 -0.62400000
O        O    0.75690000  0.94780000  0.31660000 -0.62400000
O        O    0.24310000  0.05220000  0.68340000 -0.62400000
O        O    0.68340000  0.75690000  0.05220000 -0.62400000
O        O    0.68340000  0.74310000  0.55220000 -0.62400000
O        O    0.44780000  0.25690000  0.31660000 -0.62400000
O        O    0.24310000  0.81660000  0.44780000 -0.62400000
O        O    0.24310000  0.31660000  0.05220000 -0.62400000
O        O    0.68340000  0.44780000  0.25690000 -0.62400000
O        O    0.55220000  0.75690000  0.18340000 -0.62400000
O        O    0.44780000  0.68340000  0.74310000 -0.62400000
O        O    0.18340000  0.24310000  0.44780000 -0.62400000
O        O    0.18340000  0.05220000  0.25690000 -0.62400000
O        O    0.24310000  0.18340000  0.44780000 -0.62400000
O        O    0.05220000  0.18340000  0.74310000 -0.62400000
O        O    0.18340000  0.75690000  0.55220000 -0.62400000
O        O    0.55220000  0.24310000  0.18340000 -0.62400000
O        O    0.05220000  0.74310000  0.18340000 -0.62400000
O        O    0.18340000  0.74310000  0.05220000 -0.62400000
O        O    0.25690000  0.68340000  0.44780000 -0.62400000
O        O    0.05220000  0.31660000  0.24310000 -0.62400000
O        O    0.94780000  0.74310000  0.18340000 -0.62400000
O        O    0.94780000  0.74310000  0.81660000 -0.62400000
O        O    0.74310000  0.94780000  0.81660000 -0.62400000
O        O    0.81660000  0.44780000  0.75690000 -0.62400000
O        O    0.81660000  0.05220000  0.74310000 -0.62400000
O        O    0.55220000  0.24310000  0.81660000 -0.62400000
O        O    0.94780000  0.31660000  0.75690000 -0.62400000
O        O    0.24310000  0.81660000  0.55220000 -0.62400000
O        O    0.05220000  0.18340000  0.25690000 -0.62400000
O        O    0.44780000  0.24310000  0.81660000 -0.62400000
O        O    0.68340000  0.75690000  0.94780000 -0.62400000
O        O    0.25690000  0.18340000  0.05220000 -0.62400000
O        O    0.81660000  0.05220000  0.25690000 -0.62400000
O        O    0.74310000  0.18340000  0.94780000 -0.62400000
O        O    0.68340000  0.94780000  0.75690000 -0.62400000
O        O    0.24310000  0.68340000  0.94780000 -0.62400000
O        O    0.25690000  0.31660000  0.55220000 -0.62400000
O        O    0.31660000  0.55220000  0.74310000 -0.62400000
O        O    0.74310000  0.31660000  0.44780000 -0.62400000
O        O    0.75690000  0.55220000  0.81660000 -0.62400000
O        O    0.75690000  0.18340000  0.55220000 -0.62400000
O        O    0.75690000  0.81660000  0.55220000 -0.62400000
O        O    0.25690000  0.05220000  0.81660000 -0.62400000
O        O    0.74310000  0.94780000  0.18340000 -0.62400000
O        O    0.05220000  0.25690000  0.18340000 -0.62400000
O        O    0.68340000  0.94780000  0.24310000 -0.62400000
O        O    0.31660000  0.25690000  0.55220000 -0.62400000
O        O    0.55220000  0.31660000  0.74310000 -0.62400000
O        O    0.74310000  0.44780000  0.31660000 -0.62400000
O        O    0.18340000  0.25690000  0.94780000 -0.62400000
O        O    0.18340000  0.44780000  0.24310000 -0.62400000
O        O    0.75690000  0.18340000  0.44780000 -0.62400000
O        O    0.74310000  0.81660000  0.94780000 -0.62400000
O        O    0.31660000  0.25690000  0.44780000 -0.62400000
O        O    0.24310000  0.44780000  0.81660000 -0.62400000
O        O    0.81660000  0.94780000  0.74310000 -0.62400000
O        O    0.25690000  0.94780000  0.81660000 -0.62400000
O        O    0.94780000  0.18340000  0.25690000 -0.62400000
O        O    0.25690000  0.05220000  0.18340000 -0.62400000
O        O    0.18340000  0.94780000  0.74310000 -0.62400000
O        O    0.31660000  0.55220000  0.25690000 -0.62400000
O        O    0.94780000  0.68340000  0.24310000 -0.62400000
O        O    0.68340000  0.55220000  0.25690000 -0.62400000
O        O    0.24310000  0.05220000  0.31660000 -0.62400000
O        O    0.68340000  0.74310000  0.44780000 -0.62400000
O        O    0.25690000  0.94780000  0.18340000 -0.62400000
O        O    0.18340000  0.75690000  0.44780000 -0.62400000
O        O    0.24310000  0.55220000  0.18340000 -0.62400000
O        O    0.74310000  0.31660000  0.55220000 -0.62400000
O        O    0.24310000  0.68340000  0.05220000 -0.62400000
O        O    0.18340000  0.74310000  0.94780000 -0.62400000
O        O    0.94780000  0.24310000  0.68340000 -0.62400000
O        O    0.05220000  0.68340000  0.24310000 -0.62400000
O        O    0.94780000  0.25690000  0.81660000 -0.62400000
O        O    0.68340000  0.44780000  0.74310000 -0.62400000
O        O    0.44780000  0.31660000  0.25690000 -0.62400000
O        O    0.18340000  0.44780000  0.75690000 -0.62400000
O        O    0.44780000  0.75690000  0.81660000 -0.62400000
O        O    0.81660000  0.25690000  0.05220000 -0.62400000
O        O    0.24310000  0.31660000  0.94780000 -0.62400000
O        O    0.18340000  0.55220000  0.24310000 -0.62400000
O        O    0.75690000  0.05220000  0.68340000 -0.62400000
O        O    0.18340000  0.55220000  0.75690000 -0.62400000
O        O    0.31660000  0.44780000  0.74310000 -0.62400000
O        O    0.68340000  0.24310000  0.05220000 -0.62400000
O        O    0.74310000  0.55220000  0.31660000 -0.62400000
O        O    0.94780000  0.75690000  0.31660000 -0.62400000
O        O    0.25690000  0.44780000  0.31660000 -0.62400000
O        O    0.75690000  0.44780000  0.18340000 -0.62400000
O        O    0.25690000  0.31660000  0.44780000 -0.62400000
O        O    0.75690000  0.31660000  0.05220000 -0.62400000
O        O    0.81660000  0.74310000  0.94780000 -0.62400000
O        O    0.44780000  0.25690000  0.68340000 -0.62400000
O        O    0.94780000  0.68340000  0.75690000 -0.62400000
O        O    0.31660000  0.94780000  0.24310000 -0.62400000
O        O    0.44780000  0.68340000  0.25690000 -0.62400000
O        O    0.24310000  0.55220000  0.81660000 -0.62400000
O        O    0.74310000  0.44780000  0.68340000 -0.62400000
O        O    0.31660000  0.74310000  0.55220000 -0.62400000
O        O    0.05220000  0.74310000  0.81660000 -0.62400000
O        O    0.31660000  0.05220000  0.75690000 -0.62400000
O        O    0.94780000  0.75690000  0.68340000 -0.62400000
O        O    0.75690000  0.55220000  0.18340000 -0.62400000
O        O    0.75690000  0.81660000  0.44780000 -0.62400000
O        O    0.44780000  0.74310000  0.68340000 -0.62400000
O        O    0.18340000  0.25690000  0.05220000 -0.62400000
O        O    0.55220000  0.25690000  0.31660000 -0.62400000
O        O    0.31660000  0.05220000  0.24310000 -0.62400000
O        O    0.25690000  0.81660000  0.94780000 -0.62400000
O        O    0.74310000  0.18340000  0.05220000 -0.62400000
O        O    0.31660000  0.24310000  0.94780000 -0.62400000
O        O    0.94780000  0.18340000  0.74310000 -0.62400000
O        O    0.94780000  0.81660000  0.25690000 -0.62400000
O        O    0.75690000  0.44780000  0.81660000 -0.62400000
O        O    0.44780000  0.24310000  0.18340000 -0.62400000
O        O    0.55220000  0.81660000  0.75690000 -0.62400000
O        O    0.81660000  0.55220000  0.24310000 -0.62400000
O        O    0.25690000  0.55220000  0.68340000 -0.62400000
O        O    0.68340000  0.24310000  0.94780000 -0.62400000
O        O    0.74310000  0.68340000  0.44780000 -0.62400000
O        O    0.55220000  0.75690000  0.81660000 -0.62400000
O        O    0.75690000  0.68340000  0.94780000 -0.62400000
O        O    0.81660000  0.75690000  0.55220000 -0.62400000
O        O    0.05220000  0.24310000  0.68340000 -0.62400000
O        O    0.75690000  0.94780000  0.68340000 -0.62400000
O        O    0.25690000  0.44780000  0.68340000 -0.62400000
O        O    0.44780000  0.18340000  0.75690000 -0.62400000
O        O    0.44780000  0.74310000  0.31660000 -0.62400000
O        O    0.18340000  0.94780000  0.25690000 -0.62400000
O        O    0.24310000  0.18340000  0.55220000 -0.62400000
O        O    0.31660000  0.75690000  0.05220000 -0.62400000
O        O    0.31660000  0.24310000  0.05220000 -0.62400000
O        O    0.74310000  0.05220000  0.81660000 -0.62400000
O        O    0.94780000  0.25690000  0.18340000 -0.62400000
O        O    0.24310000  0.44780000  0.18340000 -0.62400000
O        O    0.55220000  0.25690000  0.68340000 -0.62400000
O        O    0.68340000  0.05220000  0.75690000 -0.62400000
O        O    0.05220000  0.75690000  0.31660000 -0.62400000
O        O    0.81660000  0.94780000  0.25690000 -0.62400000
O        O    0.55220000  0.68340000  0.74310000 -0.62400000
O        O    0.94780000  0.81660000  0.74310000 -0.62400000
O        O    0.68340000  0.25690000  0.44780000 -0.62400000
O        O    0.44780000  0.31660000  0.74310000 -0.62400000
O        O    0.55220000  0.31660000  0.25690000 -0.62400000
O        O    0.81660000  0.24310000  0.44780000 -0.62400000
O        O    0.94780000  0.24310000  0.31660000 -0.62400000
O        O    0.18340000  0.05220000  0.74310000 -0.62400000
O        O    0.55220000  0.68340000  0.25690000 -0.62400000
O        O    0.55220000  0.74310000  0.31660000 -0.62400000
O        O    0.25690000  0.55220000  0.31660000 -0.62400000
O        O    0.74310000  0.68340000  0.55220000 -0.62400000
O        O    0.74310000  0.81660000  0.05220000 -0.62400000
O        O    0.25690000  0.81660000  0.05220000 -0.62400000
O        O    0.55220000  0.18340000  0.75690000 -0.62400000
O        O    0.25690000  0.68340000  0.55220000 -0.62400000
O        O    0.31660000  0.75690000  0.94780000 -0.62400000
O        O    0.44780000  0.75690000  0.18340000 -0.62400000
O        O    0.55220000  0.81660000  0.24310000 -0.62400000
O        O    0.31660000  0.94780000  0.75690000 -0.62400000
O        O    0.05220000  0.24310000  0.31660000 -0.62400000
O        O    0.81660000  0.24310000  0.55220000 -0.62400000
O        O    0.25690000  0.18340000  0.94780000 -0.62400000
O        O    0.55220000  0.74310000  0.68340000 -0.62400000
O        O    0.44780000  0.81660000  0.24310000 -0.62400000
O        O    0.75690000  0.31660000  0.94780000 -0.62400000
O        O    0.81660000  0.55220000  0.75690000 -0.62400000
O        O    0.74310000  0.55220000  0.68340000 -0.62400000
O        O    0.68340000  0.05220000  0.24310000 -0.62400000
O        O    0.81660000  0.74310000  0.05220000 -0.62400000
O        O    0.05220000  0.25690000  0.81660000 -0.62400000
O        O    0.44780000  0.18340000  0.24310000 -0.62400000
O        O    0.05220000  0.31660000  0.75690000 -0.62400000
O        O    0.05220000  0.75690000  0.68340000 -0.62400000
O        O    0.05220000  0.68340000  0.75690000 -0.62400000
O        O    0.74310000  0.05220000  0.18340000 -0.62400000
O        O    0.81660000  0.75690000  0.44780000 -0.62400000
O        O    0.68340000  0.55220000  0.74310000 -0.62400000
O        O    0.94780000  0.31660000  0.24310000 -0.62400000
O        O    0.31660000  0.44780000  0.25690000 -0.62400000
O        O    0.31660000  0.74310000  0.44780000 -0.62400000
O        O    0.55220000  0.18340000  0.24310000 -0.62400000
O        O    0.24310000  0.94780000  0.31660000 -0.62400000
O        O    0.81660000  0.25690000  0.94780000 -0.62400000
O        O    0.05220000  0.81660000  0.25690000 -0.62400000
O        O    0.81660000  0.44780000  0.24310000 -0.62400000
O        O    0.75690000  0.05220000  0.31660000 -0.62400000
C        C    0.20320000  0.20320000  0.43130000  0.49400000
C        C    0.20320000  0.79680000  0.56870000  0.49400000
C        C    0.70320000  0.93130000  0.79680000  0.49400000
C        C    0.06870000  0.29680000  0.20320000  0.49400000
C        C    0.70320000  0.93130000  0.20320000  0.49400000
C        C    0.29680000  0.29680000  0.56870000  0.49400000
C        C    0.70320000  0.43130000  0.29680000  0.49400000
C        C    0.70320000  0.79680000  0.93130000  0.49400000
C        C    0.20320000  0.93130000  0.70320000  0.49400000
C        C    0.93130000  0.70320000  0.20320000  0.49400000
C        C    0.20320000  0.06870000  0.29680000  0.49400000
C        C    0.20320000  0.79680000  0.43130000  0.49400000
C        C    0.70320000  0.29680000  0.56870000  0.49400000
C        C    0.20320000  0.70320000  0.06870000  0.49400000
C        C    0.20320000  0.70320000  0.93130000  0.49400000
C        C    0.06870000  0.70320000  0.20320000  0.49400000
C        C    0.93130000  0.29680000  0.79680000  0.49400000
C        C    0.43130000  0.29680000  0.29680000  0.49400000
C        C    0.20320000  0.43130000  0.79680000  0.49400000
C        C    0.43130000  0.79680000  0.79680000  0.49400000
C        C    0.20320000  0.29680000  0.93130000  0.49400000
C        C    0.20320000  0.56870000  0.20320000  0.49400000
C        C    0.79680000  0.06870000  0.70320000  0.49400000
C        C    0.70320000  0.56870000  0.29680000  0.49400000
C        C    0.29680000  0.29680000  0.43130000  0.49400000
C        C    0.79680000  0.29680000  0.06870000  0.49400000
C        C    0.93130000  0.70320000  0.79680000  0.49400000
C        C    0.29680000  0.93130000  0.20320000  0.49400000
C        C    0.20320000  0.56870000  0.79680000  0.49400000
C        C    0.70320000  0.43130000  0.70320000  0.49400000
C        C    0.29680000  0.06870000  0.79680000  0.49400000
C        C    0.43130000  0.70320000  0.70320000  0.49400000
C        C    0.20320000  0.29680000  0.06870000  0.49400000
C        C    0.29680000  0.06870000  0.20320000  0.49400000
C        C    0.70320000  0.20320000  0.06870000  0.49400000
C        C    0.93130000  0.20320000  0.70320000  0.49400000
C        C    0.93130000  0.79680000  0.29680000  0.49400000
C        C    0.79680000  0.43130000  0.79680000  0.49400000
C        C    0.79680000  0.56870000  0.20320000  0.49400000
C        C    0.29680000  0.56870000  0.70320000  0.49400000
C        C    0.70320000  0.20320000  0.93130000  0.49400000
C        C    0.70320000  0.70320000  0.43130000  0.49400000
C        C    0.56870000  0.79680000  0.79680000  0.49400000
C        C    0.79680000  0.70320000  0.93130000  0.49400000
C        C    0.79680000  0.79680000  0.56870000  0.49400000
C        C    0.06870000  0.20320000  0.70320000  0.49400000
C        C    0.79680000  0.93130000  0.70320000  0.49400000
C        C    0.29680000  0.43130000  0.70320000  0.49400000
C        C    0.43130000  0.20320000  0.79680000  0.49400000
C        C    0.43130000  0.70320000  0.29680000  0.49400000
C        C    0.20320000  0.20320000  0.56870000  0.49400000
C        C    0.29680000  0.20320000  0.06870000  0.49400000
C        C    0.20320000  0.43130000  0.20320000  0.49400000
C        C    0.56870000  0.29680000  0.70320000  0.49400000
C        C    0.70320000  0.06870000  0.79680000  0.49400000
C        C    0.79680000  0.93130000  0.29680000  0.49400000
C        C    0.93130000  0.79680000  0.70320000  0.49400000
C        C    0.70320000  0.29680000  0.43130000  0.49400000
C        C    0.43130000  0.29680000  0.70320000  0.49400000
C        C    0.56870000  0.29680000  0.29680000  0.49400000
C        C    0.79680000  0.20320000  0.43130000  0.49400000
C        C    0.93130000  0.20320000  0.29680000  0.49400000
C        C    0.20320000  0.06870000  0.70320000  0.49400000
C        C    0.56870000  0.70320000  0.29680000  0.49400000
C        C    0.29680000  0.56870000  0.29680000  0.49400000
C        C    0.70320000  0.70320000  0.56870000  0.49400000
C        C    0.70320000  0.79680000  0.06870000  0.49400000
C        C    0.29680000  0.79680000  0.06870000  0.49400000
C        C    0.56870000  0.20320000  0.79680000  0.49400000
C        C    0.29680000  0.70320000  0.56870000  0.49400000
C        C    0.29680000  0.79680000  0.93130000  0.49400000
C        C    0.56870000  0.79680000  0.20320000  0.49400000
C        C    0.29680000  0.93130000  0.79680000  0.49400000
C        C    0.06870000  0.20320000  0.29680000  0.49400000
C        C    0.79680000  0.20320000  0.56870000  0.49400000
C        C    0.29680000  0.20320000  0.93130000  0.49400000
C        C    0.56870000  0.70320000  0.70320000  0.49400000
C        C    0.43130000  0.79680000  0.20320000  0.49400000
C        C    0.79680000  0.56870000  0.79680000  0.49400000
C        C    0.79680000  0.70320000  0.06870000  0.49400000
C        C    0.43130000  0.20320000  0.20320000  0.49400000
C        C    0.06870000  0.29680000  0.79680000  0.49400000
C        C    0.06870000  0.79680000  0.70320000  0.49400000
C        C    0.06870000  0.70320000  0.79680000  0.49400000
C        C    0.70320000  0.06870000  0.20320000  0.49400000
C        C    0.79680000  0.79680000  0.43130000  0.49400000
C        C    0.70320000  0.56870000  0.70320000  0.49400000
C        C    0.93130000  0.29680000  0.20320000  0.49400000
C        C    0.29680000  0.43130000  0.29680000  0.49400000
C        C    0.29680000  0.70320000  0.43130000  0.49400000
C        C    0.56870000  0.20320000  0.20320000  0.49400000
C        C    0.20320000  0.93130000  0.29680000  0.49400000
C        C    0.79680000  0.29680000  0.93130000  0.49400000
C        C    0.06870000  0.79680000  0.29680000  0.49400000
C        C    0.79680000  0.43130000  0.20320000  0.49400000
C        C    0.79680000  0.06870000  0.29680000  0.49400000
C        C    0.17800000  0.17800000  0.38700000  0.13000000
C        C    0.17800000  0.82200000  0.61300000  0.13000000
C        C    0.67800000  0.88700000  0.82200000  0.13000000
C        C    0.11300000  0.32200000  0.17800000  0.13000000
C        C    0.67800000  0.88700000  0.17800000  0.13000000
C        C    0.32200000  0.32200000  0.61300000  0.13000000
C        C    0.67800000  0.38700000  0.32200000  0.13000000
C        C    0.67800000  0.82200000  0.88700000  0.13000000
C        C    0.17800000  0.88700000  0.67800000  0.13000000
C        C    0.88700000  0.67800000  0.17800000  0.13000000
C        C    0.17800000  0.11300000  0.32200000  0.13000000
C        C    0.17800000  0.82200000  0.38700000  0.13000000
C        C    0.67800000  0.32200000  0.61300000  0.13000000
C        C    0.17800000  0.67800000  0.11300000  0.13000000
C        C    0.17800000  0.67800000  0.88700000  0.13000000
C        C    0.11300000  0.67800000  0.17800000  0.13000000
C        C    0.88700000  0.32200000  0.82200000  0.13000000
C        C    0.38700000  0.32200000  0.32200000  0.13000000
C        C    0.17800000  0.38700000  0.82200000  0.13000000
C        C    0.38700000  0.82200000  0.82200000  0.13000000
C        C    0.17800000  0.32200000  0.88700000  0.13000000
C        C    0.17800000  0.61300000  0.17800000  0.13000000
C        C    0.82200000  0.11300000  0.67800000  0.13000000
C        C    0.67800000  0.61300000  0.32200000  0.13000000
C        C    0.32200000  0.32200000  0.38700000  0.13000000
C        C    0.82200000  0.32200000  0.11300000  0.13000000
C        C    0.88700000  0.67800000  0.82200000  0.13000000
C        C    0.32200000  0.88700000  0.17800000  0.13000000
C        C    0.17800000  0.61300000  0.82200000  0.13000000
C        C    0.67800000  0.38700000  0.67800000  0.13000000
C        C    0.32200000  0.11300000  0.82200000  0.13000000
C        C    0.38700000  0.67800000  0.67800000  0.13000000
C        C    0.17800000  0.32200000  0.11300000  0.13000000
C        C    0.32200000  0.11300000  0.17800000  0.13000000
C        C    0.67800000  0.17800000  0.11300000  0.13000000
C        C    0.88700000  0.17800000  0.67800000  0.13000000
C        C    0.88700000  0.82200000  0.32200000  0.13000000
C        C    0.82200000  0.38700000  0.82200000  0.13000000
C        C    0.82200000  0.61300000  0.17800000  0.13000000
C        C    0.32200000  0.61300000  0.67800000  0.13000000
C        C    0.67800000  0.17800000  0.88700000  0.13000000
C        C    0.67800000  0.67800000  0.38700000  0.13000000
C        C    0.61300000  0.82200000  0.82200000  0.13000000
C        C    0.82200000  0.67800000  0.88700000  0.13000000
C        C    0.82200000  0.82200000  0.61300000  0.13000000
C        C    0.11300000  0.17800000  0.67800000  0.13000000
C        C    0.82200000  0.88700000  0.67800000  0.13000000
C        C    0.32200000  0.38700000  0.67800000  0.13000000
C        C    0.38700000  0.17800000  0.82200000  0.13000000
C        C    0.38700000  0.67800000  0.32200000  0.13000000
C        C    0.17800000  0.17800000  0.61300000  0.13000000
C        C    0.32200000  0.17800000  0.11300000  0.13000000
C        C    0.17800000  0.38700000  0.17800000  0.13000000
C        C    0.61300000  0.32200000  0.67800000  0.13000000
C        C    0.67800000  0.11300000  0.82200000  0.13000000
C        C    0.82200000  0.88700000  0.32200000  0.13000000
C        C    0.88700000  0.82200000  0.67800000  0.13000000
C        C    0.67800000  0.32200000  0.38700000  0.13000000
C        C    0.38700000  0.32200000  0.67800000  0.13000000
C        C    0.61300000  0.32200000  0.32200000  0.13000000
C        C    0.82200000  0.17800000  0.38700000  0.13000000
C        C    0.88700000  0.17800000  0.32200000  0.13000000
C        C    0.17800000  0.11300000  0.67800000  0.13000000
C        C    0.61300000  0.67800000  0.32200000  0.13000000
C        C    0.32200000  0.61300000  0.32200000  0.13000000
C        C    0.67800000  0.67800000  0.61300000  0.13000000
C        C    0.67800000  0.82200000  0.11300000  0.13000000
C        C    0.32200000  0.82200000  0.11300000  0.13000000
C        C    0.61300000  0.17800000  0.82200000  0.13000000
C        C    0.32200000  0.67800000  0.61300000  0.13000000
C        C    0.32200000  0.82200000  0.88700000  0.13000000
C        C    0.61300000  0.82200000  0.17800000  0.13000000
C        C    0.32200000  0.88700000  0.82200000  0.13000000
C        C    0.11300000  0.17800000  0.32200000  0.13000000
C        C    0.82200000  0.17800000  0.61300000  0.13000000
C        C    0.32200000  0.17800000  0.88700000  0.13000000
C        C    0.61300000  0.67800000  0.67800000  0.13000000
C        C    0.38700000  0.82200000  0.17800000  0.13000000
C        C    0.82200000  0.61300000  0.82200000  0.13000000
C        C    0.82200000  0.67800000  0.11300000  0.13000000
C        C    0.38700000  0.17800000  0.17800000  0.13000000
C        C    0.11300000  0.32200000  0.82200000  0.13000000
C        C    0.11300000  0.82200000  0.67800000  0.13000000
C        C    0.11300000  0.67800000  0.82200000  0.13000000
C        C    0.67800000  0.11300000  0.17800000  0.13000000
C        C    0.82200000  0.82200000  0.38700000  0.13000000
C        C    0.67800000  0.61300000  0.67800000  0.13000000
C        C    0.88700000  0.32200000  0.17800000  0.13000000
C        C    0.32200000  0.38700000  0.32200000  0.13000000
C        C    0.32200000  0.67800000  0.38700000  0.13000000
C        C    0.61300000  0.17800000  0.17800000  0.13000000
C        C    0.17800000  0.88700000  0.32200000  0.13000000
C        C    0.82200000  0.32200000  0.88700000  0.13000000
C        C    0.11300000  0.82200000  0.32200000  0.13000000
C        C    0.82200000  0.38700000  0.17800000  0.13000000
C        C    0.82200000  0.11300000  0.32200000  0.13000000
C        C    0.63450000  0.80060000  0.13450000 -0.15600000
C        C    0.13450000  0.69940000  0.13450000 -0.15600000
C        C    0.86550000  0.36550000  0.80060000 -0.15600000
C        C    0.19940000  0.86550000  0.63450000 -0.15600000
C        C    0.13450000  0.13450000  0.30060000 -0.15600000
C        C    0.36550000  0.63450000  0.69940000 -0.15600000
C        C    0.69940000  0.36550000  0.36550000 -0.15600000
C        C    0.13450000  0.36550000  0.19940000 -0.15600000
C        C    0.69940000  0.86550000  0.86550000 -0.15600000
C        C    0.36550000  0.30060000  0.36550000 -0.15600000
C        C    0.86550000  0.13450000  0.30060000 -0.15600000
C        C    0.30060000  0.13450000  0.13450000 -0.15600000
C        C    0.13450000  0.86550000  0.69940000 -0.15600000
C        C    0.19940000  0.13450000  0.36550000 -0.15600000
C        C    0.19940000  0.63450000  0.13450000 -0.15600000
C        C    0.63450000  0.36550000  0.69940000 -0.15600000
C        C    0.19940000  0.36550000  0.86550000 -0.15600000
C        C    0.13450000  0.63450000  0.19940000 -0.15600000
C        C    0.80060000  0.13450000  0.63450000 -0.15600000
C        C    0.63450000  0.19940000  0.13450000 -0.15600000
C        C    0.30060000  0.36550000  0.36550000 -0.15600000
C        C    0.80060000  0.36550000  0.13450000 -0.15600000
C        C    0.86550000  0.69940000  0.86550000 -0.15600000
C        C    0.36550000  0.30060000  0.63450000 -0.15600000
C        C    0.36550000  0.63450000  0.30060000 -0.15600000
C        C    0.19940000  0.63450000  0.86550000 -0.15600000
C        C    0.69940000  0.36550000  0.63450000 -0.15600000
C        C    0.13450000  0.69940000  0.86550000 -0.15600000
C        C    0.80060000  0.63450000  0.13450000 -0.15600000
C        C    0.80060000  0.86550000  0.36550000 -0.15600000
C        C    0.36550000  0.69940000  0.63450000 -0.15600000
C        C    0.13450000  0.30060000  0.13450000 -0.15600000
C        C    0.30060000  0.86550000  0.86550000 -0.15600000
C        C    0.36550000  0.19940000  0.86550000 -0.15600000
C        C    0.86550000  0.13450000  0.69940000 -0.15600000
C        C    0.63450000  0.86550000  0.80060000 -0.15600000
C        C    0.86550000  0.63450000  0.19940000 -0.15600000
C        C    0.63450000  0.19940000  0.86550000 -0.15600000
C        C    0.69940000  0.63450000  0.36550000 -0.15600000
C        C    0.63450000  0.80060000  0.86550000 -0.15600000
C        C    0.80060000  0.63450000  0.86550000 -0.15600000
C        C    0.86550000  0.80060000  0.63450000 -0.15600000
C        C    0.13450000  0.19940000  0.63450000 -0.15600000
C        C    0.80060000  0.86550000  0.63450000 -0.15600000
C        C    0.30060000  0.36550000  0.63450000 -0.15600000
C        C    0.36550000  0.13450000  0.80060000 -0.15600000
C        C    0.19940000  0.13450000  0.63450000 -0.15600000
C        C    0.36550000  0.19940000  0.13450000 -0.15600000
C        C    0.69940000  0.13450000  0.86550000 -0.15600000
C        C    0.86550000  0.30060000  0.13450000 -0.15600000
C        C    0.19940000  0.36550000  0.13450000 -0.15600000
C        C    0.63450000  0.30060000  0.63450000 -0.15600000
C        C    0.13450000  0.80060000  0.36550000 -0.15600000
C        C    0.86550000  0.86550000  0.30060000 -0.15600000
C        C    0.86550000  0.86550000  0.69940000 -0.15600000
C        C    0.63450000  0.30060000  0.36550000 -0.15600000
C        C    0.36550000  0.36550000  0.69940000 -0.15600000
C        C    0.63450000  0.36550000  0.30060000 -0.15600000
C        C    0.86550000  0.19940000  0.36550000 -0.15600000
C        C    0.13450000  0.13450000  0.69940000 -0.15600000
C        C    0.63450000  0.63450000  0.30060000 -0.15600000
C        C    0.63450000  0.69940000  0.36550000 -0.15600000
C        C    0.30060000  0.63450000  0.36550000 -0.15600000
C        C    0.69940000  0.86550000  0.13450000 -0.15600000
C        C    0.30060000  0.86550000  0.13450000 -0.15600000
C        C    0.63450000  0.13450000  0.80060000 -0.15600000
C        C    0.30060000  0.63450000  0.63450000 -0.15600000
C        C    0.36550000  0.80060000  0.86550000 -0.15600000
C        C    0.36550000  0.80060000  0.13450000 -0.15600000
C        C    0.63450000  0.86550000  0.19940000 -0.15600000
C        C    0.36550000  0.86550000  0.80060000 -0.15600000
C        C    0.13450000  0.19940000  0.36550000 -0.15600000
C        C    0.86550000  0.19940000  0.63450000 -0.15600000
C        C    0.30060000  0.13450000  0.86550000 -0.15600000
C        C    0.63450000  0.69940000  0.63450000 -0.15600000
C        C    0.36550000  0.86550000  0.19940000 -0.15600000
C        C    0.80060000  0.36550000  0.86550000 -0.15600000
C        C    0.86550000  0.63450000  0.80060000 -0.15600000
C        C    0.69940000  0.63450000  0.63450000 -0.15600000
C        C    0.86550000  0.69940000  0.13450000 -0.15600000
C        C    0.13450000  0.30060000  0.86550000 -0.15600000
C        C    0.36550000  0.13450000  0.19940000 -0.15600000
C        C    0.13450000  0.36550000  0.80060000 -0.15600000
C        C    0.13450000  0.80060000  0.63450000 -0.15600000
C        C    0.13450000  0.63450000  0.80060000 -0.15600000
C        C    0.69940000  0.13450000  0.13450000 -0.15600000
C        C    0.86550000  0.80060000  0.36550000 -0.15600000
C        C    0.63450000  0.63450000  0.69940000 -0.15600000
C        C    0.36550000  0.36550000  0.30060000 -0.15600000
C        C    0.36550000  0.69940000  0.36550000 -0.15600000
C        C    0.63450000  0.13450000  0.19940000 -0.15600000
C        C    0.19940000  0.86550000  0.36550000 -0.15600000
C        C    0.86550000  0.30060000  0.86550000 -0.15600000
C        C    0.13450000  0.86550000  0.30060000 -0.15600000
C        C    0.86550000  0.36550000  0.19940000 -0.15600000
C        C    0.80060000  0.13450000  0.36550000 -0.15600000
H        H    0.61980000  0.77200000  0.11980000  0.15600000
H        H    0.11980000  0.72800000  0.11980000  0.15600000
H        H    0.88020000  0.38020000  0.77200000  0.15600000
H        H    0.22800000  0.88020000  0.61980000  0.15600000
H        H    0.11980000  0.11980000  0.27200000  0.15600000
H        H    0.38020000  0.61980000  0.72800000  0.15600000
H        H    0.72800000  0.38020000  0.38020000  0.15600000
H        H    0.11980000  0.38020000  0.22800000  0.15600000
H        H    0.72800000  0.88020000  0.88020000  0.15600000
H        H    0.38020000  0.27200000  0.38020000  0.15600000
H        H    0.88020000  0.11980000  0.27200000  0.15600000
H        H    0.27200000  0.11980000  0.11980000  0.15600000
H        H    0.11980000  0.88020000  0.72800000  0.15600000
H        H    0.22800000  0.11980000  0.38020000  0.15600000
H        H    0.22800000  0.61980000  0.11980000  0.15600000
H        H    0.61980000  0.38020000  0.72800000  0.15600000
H        H    0.22800000  0.38020000  0.88020000  0.15600000
H        H    0.11980000  0.61980000  0.22800000  0.15600000
H        H    0.77200000  0.11980000  0.61980000  0.15600000
H        H    0.61980000  0.22800000  0.11980000  0.15600000
H        H    0.27200000  0.38020000  0.38020000  0.15600000
H        H    0.77200000  0.38020000  0.11980000  0.15600000
H        H    0.88020000  0.72800000  0.88020000  0.15600000
H        H    0.38020000  0.27200000  0.61980000  0.15600000
H        H    0.38020000  0.61980000  0.27200000  0.15600000
H        H    0.22800000  0.61980000  0.88020000  0.15600000
H        H    0.72800000  0.38020000  0.61980000  0.15600000
H        H    0.11980000  0.72800000  0.88020000  0.15600000
H        H    0.77200000  0.61980000  0.11980000  0.15600000
H        H    0.77200000  0.88020000  0.38020000  0.15600000
H        H    0.38020000  0.72800000  0.61980000  0.15600000
H        H    0.11980000  0.27200000  0.11980000  0.15600000
H        H    0.27200000  0.88020000  0.88020000  0.15600000
H        H    0.38020000  0.22800000  0.88020000  0.15600000
H        H    0.88020000  0.11980000  0.72800000  0.15600000
H        H    0.61980000  0.88020000  0.77200000  0.15600000
H        H    0.88020000  0.61980000  0.22800000  0.15600000
H        H    0.61980000  0.22800000  0.88020000  0.15600000
H        H    0.72800000  0.61980000  0.38020000  0.15600000
H        H    0.61980000  0.77200000  0.88020000  0.15600000
H        H    0.77200000  0.61980000  0.88020000  0.15600000
H        H    0.88020000  0.77200000  0.61980000  0.15600000
H        H    0.11980000  0.22800000  0.61980000  0.15600000
H        H    0.77200000  0.88020000  0.61980000  0.15600000
H        H    0.27200000  0.38020000  0.61980000  0.15600000
H        H    0.38020000  0.11980000  0.77200000  0.15600000
H        H    0.22800000  0.11980000  0.61980000  0.15600000
H        H    0.38020000  0.22800000  0.11980000  0.15600000
H        H    0.72800000  0.11980000  0.88020000  0.15600000
H        H    0.88020000  0.27200000  0.11980000  0.15600000
H        H    0.22800000  0.38020000  0.11980000  0.15600000
H        H    0.61980000  0.27200000  0.61980000  0.15600000
H        H    0.11980000  0.77200000  0.38020000  0.15600000
H        H    0.88020000  0.88020000  0.27200000  0.15600000
H        H    0.88020000  0.88020000  0.72800000  0.15600000
H        H    0.61980000  0.27200000  0.38020000  0.15600000
H        H    0.38020000  0.38020000  0.72800000  0.15600000
H        H    0.61980000  0.38020000  0.27200000  0.15600000
H        H    0.88020000  0.22800000  0.38020000  0.15600000
H        H    0.11980000  0.11980000  0.72800000  0.15600000
H        H    0.61980000  0.61980000  0.27200000  0.15600000
H        H    0.61980000  0.72800000  0.38020000  0.15600000
H        H    0.27200000  0.61980000  0.38020000  0.15600000
H        H    0.72800000  0.88020000  0.11980000  0.15600000
H        H    0.27200000  0.88020000  0.11980000  0.15600000
H        H    0.61980000  0.11980000  0.77200000  0.15600000
H        H    0.27200000  0.61980000  0.61980000  0.15600000
H        H    0.38020000  0.77200000  0.88020000  0.15600000
H        H    0.38020000  0.77200000  0.11980000  0.15600000
H        H    0.61980000  0.88020000  0.22800000  0.15600000
H        H    0.38020000  0.88020000  0.77200000  0.15600000
H        H    0.11980000  0.22800000  0.38020000  0.15600000
H        H    0.88020000  0.22800000  0.61980000  0.15600000
H        H    0.27200000  0.11980000  0.88020000  0.15600000
H        H    0.61980000  0.72800000  0.61980000  0.15600000
H        H    0.38020000  0.88020000  0.22800000  0.15600000
H        H    0.77200000  0.38020000  0.88020000  0.15600000
H        H    0.88020000  0.61980000  0.77200000  0.15600000
H        H    0.72800000  0.61980000  0.61980000  0.15600000
H        H    0.88020000  0.72800000  0.11980000  0.15600000
H        H    0.11980000  0.27200000  0.88020000  0.15600000
H        H    0.38020000  0.11980000  0.22800000  0.15600000
H        H    0.11980000  0.38020000  0.77200000  0.15600000
H        H    0.11980000  0.77200000  0.61980000  0.15600000
H        H    0.11980000  0.61980000  0.77200000  0.15600000
H        H    0.72800000  0.11980000  0.11980000  0.15600000
H        H    0.88020000  0.77200000  0.38020000  0.15600000
H        H    0.61980000  0.61980000  0.72800000  0.15600000
H        H    0.38020000  0.38020000  0.27200000  0.15600000
H        H    0.38020000  0.72800000  0.38020000  0.15600000
H        H    0.61980000  0.11980000  0.22800000  0.15600000
H        H    0.22800000  0.88020000  0.38020000  0.15600000
H        H    0.88020000  0.27200000  0.88020000  0.15600000
H        H    0.11980000  0.88020000  0.27200000  0.15600000
H        H    0.88020000  0.38020000  0.22800000  0.15600000
H        H    0.77200000  0.11980000  0.38020000  0.15600000
