data_IRMOF-1

_cell_length_a  18.26598237
_cell_length_b  18.26598237
_cell_length_c  18.26598237
_cell_angle_alpha  60.00000000
_cell_angle_beta  60.00000000
_cell_angle_gamma  60.00000000


_symmetry_space_group_name_Hall ' P 1'
_symmetry_space_group_name_H-M  'P 1'
_symmetry_Int_Tables_number     1

loop_
_atom_site_label
_atom_site_type_symbol
_atom_site_fract_x
_atom_site_fract_y
_atom_site_fract_z
_atom_site_charge
Zn       Zn   0.29340000  0.29340000  0.29340000  0.00000000
Zn       Zn   0.70660000  0.70660000  0.88020000  0.00000000
Zn       Zn   0.11980000  0.29340000  0.29340000  0.00000000
Zn       Zn   0.29340000  0.29340000  0.11980000  0.00000000
Zn       Zn   0.70660000  0.70660000  0.70660000  0.00000000
Zn       Zn   0.70660000  0.88020000  0.70660000  0.00000000
Zn       Zn   0.88020000  0.70660000  0.70660000  0.00000000
Zn       Zn   0.29340000  0.11980000  0.29340000  0.00000000
O        O    0.25000000  0.25000000  0.25000000  0.00000000
O        O    0.75000000  0.75000000  0.75000000  0.00000000
O        O    0.07020000  0.36600000  0.19780000  0.00000000
O        O    0.36600000  0.19780000  0.36600000  0.00000000
O        O    0.63400000  0.63400000  0.92980000  0.00000000
O        O    0.36600000  0.19780000  0.07020000  0.00000000
O        O    0.07020000  0.19780000  0.36600000  0.00000000
O        O    0.92980000  0.63400000  0.80220000  0.00000000
O        O    0.63400000  0.92980000  0.63400000  0.00000000
O        O    0.07020000  0.36600000  0.36600000  0.00000000
O        O    0.36600000  0.36600000  0.19780000  0.00000000
O        O    0.80220000  0.63400000  0.92980000  0.00000000
O        O    0.80220000  0.63400000  0.63400000  0.00000000
O        O    0.19780000  0.36600000  0.36600000  0.00000000
O        O    0.80220000  0.92980000  0.63400000  0.00000000
O        O    0.36600000  0.36600000  0.07020000  0.00000000
O        O    0.19780000  0.36600000  0.07020000  0.00000000
O        O    0.63400000  0.80220000  0.92980000  0.00000000
O        O    0.63400000  0.63400000  0.80220000  0.00000000
O        O    0.92980000  0.80220000  0.63400000  0.00000000
O        O    0.19780000  0.07020000  0.36600000  0.00000000
O        O    0.92980000  0.63400000  0.63400000  0.00000000
O        O    0.63400000  0.80220000  0.63400000  0.00000000
O        O    0.36600000  0.07020000  0.36600000  0.00000000
O        O    0.63400000  0.92980000  0.80220000  0.00000000
O        O    0.36600000  0.07020000  0.19780000  0.00000000
C        C    0.11130000  0.38870000  0.11130000  0.00000000
C        C    0.11130000  0.38870000  0.38870000  0.00000000
C        C    0.38870000  0.38870000  0.11130000  0.00000000
C        C    0.88870000  0.61130000  0.88870000  0.00000000
C        C    0.11130000  0.11130000  0.38870000  0.00000000
C        C    0.61130000  0.88870000  0.61130000  0.00000000
C        C    0.61130000  0.61130000  0.88870000  0.00000000
C        C    0.38870000  0.11130000  0.38870000  0.00000000
C        C    0.61130000  0.88870000  0.88870000  0.00000000
C        C    0.88870000  0.88870000  0.61130000  0.00000000
C        C    0.38870000  0.11130000  0.11130000  0.00000000
C        C    0.88870000  0.61130000  0.61130000  0.00000000
C        C    0.05380000  0.44620000  0.05380000  0.00000000
C        C    0.05380000  0.44620000  0.44620000  0.00000000
C        C    0.44620000  0.44620000  0.05380000  0.00000000
C        C    0.94620000  0.55380000  0.94620000  0.00000000
C        C    0.05380000  0.05380000  0.44620000  0.00000000
C        C    0.55380000  0.94620000  0.55380000  0.00000000
C        C    0.55380000  0.55380000  0.94620000  0.00000000
C        C    0.44620000  0.05380000  0.44620000  0.00000000
C        C    0.55380000  0.94620000  0.94620000  0.00000000
C        C    0.94620000  0.94620000  0.55380000  0.00000000
C        C    0.44620000  0.05380000  0.05380000  0.00000000
C        C    0.94620000  0.55380000  0.55380000  0.00000000
C        C    0.96110000  0.47310000  0.09270000  0.00000000
C        C    0.47310000  0.09270000  0.47310000  0.00000000
C        C    0.52690000  0.52690000  0.03890000  0.00000000
C        C    0.47310000  0.09270000  0.96110000  0.00000000
C        C    0.96110000  0.09270000  0.47310000  0.00000000
C        C    0.03890000  0.52690000  0.90730000  0.00000000
C        C    0.52690000  0.03890000  0.52690000  0.00000000
C        C    0.96110000  0.47310000  0.47310000  0.00000000
C        C    0.47310000  0.47310000  0.09270000  0.00000000
C        C    0.90730000  0.52690000  0.03890000  0.00000000
C        C    0.90730000  0.52690000  0.52690000  0.00000000
C        C    0.09270000  0.47310000  0.47310000  0.00000000
C        C    0.90730000  0.03890000  0.52690000  0.00000000
C        C    0.47310000  0.47310000  0.96110000  0.00000000
C        C    0.09270000  0.47310000  0.96110000  0.00000000
C        C    0.52690000  0.90730000  0.03890000  0.00000000
C        C    0.52690000  0.52690000  0.90730000  0.00000000
C        C    0.03890000  0.90730000  0.52690000  0.00000000
C        C    0.09270000  0.96110000  0.47310000  0.00000000
C        C    0.03890000  0.52690000  0.52690000  0.00000000
C        C    0.52690000  0.90730000  0.52690000  0.00000000
C        C    0.47310000  0.96110000  0.47310000  0.00000000
C        C    0.52690000  0.03890000  0.90730000  0.00000000
C        C    0.47310000  0.96110000  0.09270000  0.00000000
H        H    0.93500000  0.45520000  0.15460000  0.00000000
H        H    0.45520000  0.15460000  0.45520000  0.00000000
H        H    0.54480000  0.54480000  0.06500000  0.00000000
H        H    0.45520000  0.15460000  0.93500000  0.00000000
H        H    0.93500000  0.15460000  0.45520000  0.00000000
H        H    0.06500000  0.54480000  0.84540000  0.00000000
H        H    0.54480000  0.06500000  0.54480000  0.00000000
H        H    0.93500000  0.45520000  0.45520000  0.00000000
H        H    0.45520000  0.45520000  0.15460000  0.00000000
H        H    0.84540000  0.54480000  0.06500000  0.00000000
H        H    0.84540000  0.54480000  0.54480000  0.00000000
H        H    0.15460000  0.45520000  0.45520000  0.00000000
H        H    0.84540000  0.06500000  0.54480000  0.00000000
H        H    0.45520000  0.45520000  0.93500000  0.00000000
H        H    0.15460000  0.45520000  0.93500000  0.00000000
H        H    0.54480000  0.84540000  0.06500000  0.00000000
H        H    0.54480000  0.54480000  0.84540000  0.00000000
H        H    0.06500000  0.84540000  0.54480000  0.00000000
H        H    0.15460000  0.93500000  0.45520000  0.00000000
H        H    0.06500000  0.54480000  0.54480000  0.00000000
H        H    0.54480000  0.84540000  0.54480000  0.00000000
H        H    0.45520000  0.93500000  0.45520000  0.00000000
H        H    0.54480000  0.06500000  0.84540000  0.00000000
H        H    0.45520000  0.93500000  0.15460000  0.00000000
