data_IRMOF-1

_cell_length_a  25.83200000
_cell_length_b  25.83200000
_cell_length_c  25.83200000
_cell_angle_alpha  90.00000000
_cell_angle_beta  90.00000000
_cell_angle_gamma  90.00000000


_symmetry_space_group_name_Hall ' P 1'
_symmetry_space_group_name_H-M  'P 1'
_symmetry_Int_Tables_number     1

loop_
_atom_site_label
_atom_site_type_symbol
_atom_site_fract_x
_atom_site_fract_y
_atom_site_fract_z
_atom_site_charge
Zn       Zn   0.70660000  0.29340000  0.29340000  0.00000000
Zn       Zn   0.20660000  0.70660000  0.79340000  0.00000000
Zn       Zn   0.20660000  0.29340000  0.79340000  0.00000000
Zn       Zn   0.20660000  0.20660000  0.70660000  0.00000000
Zn       Zn   0.20660000  0.79340000  0.29340000  0.00000000
Zn       Zn   0.70660000  0.70660000  0.70660000  0.00000000
Zn       Zn   0.70660000  0.20660000  0.79340000  0.00000000
Zn       Zn   0.20660000  0.70660000  0.20660000  0.00000000
Zn       Zn   0.29340000  0.29340000  0.70660000  0.00000000
Zn       Zn   0.79340000  0.20660000  0.70660000  0.00000000
Zn       Zn   0.20660000  0.79340000  0.70660000  0.00000000
Zn       Zn   0.29340000  0.29340000  0.29340000  0.00000000
Zn       Zn   0.70660000  0.70660000  0.29340000  0.00000000
Zn       Zn   0.70660000  0.79340000  0.79340000  0.00000000
Zn       Zn   0.29340000  0.79340000  0.79340000  0.00000000
Zn       Zn   0.29340000  0.79340000  0.20660000  0.00000000
Zn       Zn   0.29340000  0.20660000  0.79340000  0.00000000
Zn       Zn   0.79340000  0.20660000  0.29340000  0.00000000
Zn       Zn   0.70660000  0.20660000  0.20660000  0.00000000
Zn       Zn   0.79340000  0.29340000  0.79340000  0.00000000
Zn       Zn   0.79340000  0.70660000  0.79340000  0.00000000
Zn       Zn   0.70660000  0.79340000  0.20660000  0.00000000
Zn       Zn   0.79340000  0.79340000  0.70660000  0.00000000
Zn       Zn   0.70660000  0.29340000  0.70660000  0.00000000
Zn       Zn   0.20660000  0.29340000  0.20660000  0.00000000
Zn       Zn   0.29340000  0.70660000  0.29340000  0.00000000
Zn       Zn   0.29340000  0.70660000  0.70660000  0.00000000
Zn       Zn   0.29340000  0.20660000  0.20660000  0.00000000
Zn       Zn   0.20660000  0.20660000  0.29340000  0.00000000
Zn       Zn   0.79340000  0.29340000  0.20660000  0.00000000
Zn       Zn   0.79340000  0.70660000  0.20660000  0.00000000
Zn       Zn   0.79340000  0.79340000  0.29340000  0.00000000
O        O    0.25000000  0.25000000  0.75000000  0.00000000
O        O    0.75000000  0.75000000  0.75000000  0.00000000
O        O    0.75000000  0.25000000  0.75000000  0.00000000
O        O    0.25000000  0.75000000  0.25000000  0.00000000
O        O    0.25000000  0.75000000  0.75000000  0.00000000
O        O    0.25000000  0.25000000  0.25000000  0.00000000
O        O    0.75000000  0.25000000  0.25000000  0.00000000
O        O    0.75000000  0.75000000  0.25000000  0.00000000
O        O    0.21810000  0.21810000  0.63400000  0.00000000
O        O    0.21810000  0.78190000  0.36600000  0.00000000
O        O    0.71810000  0.13400000  0.78190000  0.00000000
O        O    0.86600000  0.28190000  0.21810000  0.00000000
O        O    0.71810000  0.13400000  0.21810000  0.00000000
O        O    0.28190000  0.28190000  0.36600000  0.00000000
O        O    0.71810000  0.63400000  0.28190000  0.00000000
O        O    0.71810000  0.78190000  0.13400000  0.00000000
O        O    0.21810000  0.13400000  0.71810000  0.00000000
O        O    0.13400000  0.71810000  0.21810000  0.00000000
O        O    0.21810000  0.86600000  0.28190000  0.00000000
O        O    0.21810000  0.78190000  0.63400000  0.00000000
O        O    0.71810000  0.28190000  0.36600000  0.00000000
O        O    0.21810000  0.71810000  0.86600000  0.00000000
O        O    0.21810000  0.71810000  0.13400000  0.00000000
O        O    0.86600000  0.71810000  0.21810000  0.00000000
O        O    0.13400000  0.28190000  0.78190000  0.00000000
O        O    0.63400000  0.28190000  0.28190000  0.00000000
O        O    0.21810000  0.63400000  0.78190000  0.00000000
O        O    0.63400000  0.78190000  0.78190000  0.00000000
O        O    0.21810000  0.28190000  0.13400000  0.00000000
O        O    0.21810000  0.36600000  0.21810000  0.00000000
O        O    0.78190000  0.86600000  0.71810000  0.00000000
O        O    0.71810000  0.36600000  0.28190000  0.00000000
O        O    0.28190000  0.28190000  0.63400000  0.00000000
O        O    0.78190000  0.28190000  0.86600000  0.00000000
O        O    0.13400000  0.71810000  0.78190000  0.00000000
O        O    0.28190000  0.13400000  0.21810000  0.00000000
O        O    0.21810000  0.36600000  0.78190000  0.00000000
O        O    0.71810000  0.63400000  0.71810000  0.00000000
O        O    0.28190000  0.86600000  0.78190000  0.00000000
O        O    0.63400000  0.71810000  0.71810000  0.00000000
O        O    0.21810000  0.28190000  0.86600000  0.00000000
O        O    0.28190000  0.86600000  0.21810000  0.00000000
O        O    0.71810000  0.21810000  0.86600000  0.00000000
O        O    0.13400000  0.21810000  0.71810000  0.00000000
O        O    0.13400000  0.78190000  0.28190000  0.00000000
O        O    0.78190000  0.63400000  0.78190000  0.00000000
O        O    0.78190000  0.36600000  0.21810000  0.00000000
O        O    0.28190000  0.36600000  0.71810000  0.00000000
O        O    0.71810000  0.21810000  0.13400000  0.00000000
O        O    0.71810000  0.71810000  0.63400000  0.00000000
O        O    0.36600000  0.78190000  0.78190000  0.00000000
O        O    0.78190000  0.71810000  0.13400000  0.00000000
O        O    0.78190000  0.78190000  0.36600000  0.00000000
O        O    0.86600000  0.21810000  0.71810000  0.00000000
O        O    0.78190000  0.13400000  0.71810000  0.00000000
O        O    0.28190000  0.63400000  0.71810000  0.00000000
O        O    0.63400000  0.21810000  0.78190000  0.00000000
O        O    0.63400000  0.71810000  0.28190000  0.00000000
O        O    0.21810000  0.21810000  0.36600000  0.00000000
O        O    0.28190000  0.21810000  0.86600000  0.00000000
O        O    0.21810000  0.63400000  0.21810000  0.00000000
O        O    0.36600000  0.28190000  0.71810000  0.00000000
O        O    0.71810000  0.86600000  0.78190000  0.00000000
O        O    0.78190000  0.13400000  0.28190000  0.00000000
O        O    0.13400000  0.78190000  0.71810000  0.00000000
O        O    0.71810000  0.28190000  0.63400000  0.00000000
O        O    0.63400000  0.28190000  0.71810000  0.00000000
O        O    0.36600000  0.28190000  0.28190000  0.00000000
O        O    0.78190000  0.21810000  0.63400000  0.00000000
O        O    0.13400000  0.21810000  0.28190000  0.00000000
O        O    0.21810000  0.86600000  0.71810000  0.00000000
O        O    0.36600000  0.71810000  0.28190000  0.00000000
O        O    0.28190000  0.36600000  0.28190000  0.00000000
O        O    0.71810000  0.71810000  0.36600000  0.00000000
O        O    0.71810000  0.78190000  0.86600000  0.00000000
O        O    0.28190000  0.78190000  0.86600000  0.00000000
O        O    0.36600000  0.21810000  0.78190000  0.00000000
O        O    0.28190000  0.71810000  0.36600000  0.00000000
O        O    0.28190000  0.78190000  0.13400000  0.00000000
O        O    0.36600000  0.78190000  0.21810000  0.00000000
O        O    0.28190000  0.13400000  0.78190000  0.00000000
O        O    0.86600000  0.21810000  0.28190000  0.00000000
O        O    0.78190000  0.21810000  0.36600000  0.00000000
O        O    0.28190000  0.21810000  0.13400000  0.00000000
O        O    0.36600000  0.71810000  0.71810000  0.00000000
O        O    0.63400000  0.78190000  0.21810000  0.00000000
O        O    0.78190000  0.36600000  0.78190000  0.00000000
O        O    0.78190000  0.71810000  0.86600000  0.00000000
O        O    0.63400000  0.21810000  0.21810000  0.00000000
O        O    0.86600000  0.28190000  0.78190000  0.00000000
O        O    0.86600000  0.78190000  0.71810000  0.00000000
O        O    0.86600000  0.71810000  0.78190000  0.00000000
O        O    0.71810000  0.86600000  0.21810000  0.00000000
O        O    0.78190000  0.78190000  0.63400000  0.00000000
O        O    0.71810000  0.36600000  0.71810000  0.00000000
O        O    0.13400000  0.28190000  0.21810000  0.00000000
O        O    0.28190000  0.63400000  0.28190000  0.00000000
O        O    0.28190000  0.71810000  0.63400000  0.00000000
O        O    0.36600000  0.21810000  0.21810000  0.00000000
O        O    0.21810000  0.13400000  0.28190000  0.00000000
O        O    0.78190000  0.28190000  0.13400000  0.00000000
O        O    0.86600000  0.78190000  0.28190000  0.00000000
O        O    0.78190000  0.63400000  0.21810000  0.00000000
O        O    0.78190000  0.86600000  0.28190000  0.00000000
C        C    0.25000000  0.25000000  0.61130000  0.00000000
C        C    0.61130000  0.75000000  0.75000000  0.00000000
C        C    0.25000000  0.88870000  0.25000000  0.00000000
C        C    0.75000000  0.25000000  0.88870000  0.00000000
C        C    0.11130000  0.25000000  0.75000000  0.00000000
C        C    0.11130000  0.75000000  0.25000000  0.00000000
C        C    0.75000000  0.61130000  0.75000000  0.00000000
C        C    0.75000000  0.38870000  0.25000000  0.00000000
C        C    0.25000000  0.38870000  0.75000000  0.00000000
C        C    0.75000000  0.75000000  0.11130000  0.00000000
C        C    0.75000000  0.11130000  0.75000000  0.00000000
C        C    0.25000000  0.61130000  0.75000000  0.00000000
C        C    0.25000000  0.25000000  0.38870000  0.00000000
C        C    0.25000000  0.25000000  0.88870000  0.00000000
C        C    0.75000000  0.88870000  0.75000000  0.00000000
C        C    0.75000000  0.11130000  0.25000000  0.00000000
C        C    0.11130000  0.75000000  0.75000000  0.00000000
C        C    0.61130000  0.25000000  0.75000000  0.00000000
C        C    0.75000000  0.25000000  0.61130000  0.00000000
C        C    0.25000000  0.88870000  0.75000000  0.00000000
C        C    0.25000000  0.38870000  0.25000000  0.00000000
C        C    0.75000000  0.75000000  0.38870000  0.00000000
C        C    0.25000000  0.75000000  0.88870000  0.00000000
C        C    0.38870000  0.25000000  0.75000000  0.00000000
C        C    0.25000000  0.75000000  0.38870000  0.00000000
C        C    0.25000000  0.75000000  0.11130000  0.00000000
C        C    0.38870000  0.75000000  0.25000000  0.00000000
C        C    0.25000000  0.11130000  0.75000000  0.00000000
C        C    0.88870000  0.25000000  0.25000000  0.00000000
C        C    0.75000000  0.25000000  0.38870000  0.00000000
C        C    0.25000000  0.25000000  0.11130000  0.00000000
C        C    0.38870000  0.75000000  0.75000000  0.00000000
C        C    0.61130000  0.75000000  0.25000000  0.00000000
C        C    0.75000000  0.75000000  0.88870000  0.00000000
C        C    0.61130000  0.25000000  0.25000000  0.00000000
C        C    0.88870000  0.25000000  0.75000000  0.00000000
C        C    0.88870000  0.75000000  0.75000000  0.00000000
C        C    0.75000000  0.75000000  0.61130000  0.00000000
C        C    0.75000000  0.38870000  0.75000000  0.00000000
C        C    0.11130000  0.25000000  0.25000000  0.00000000
C        C    0.25000000  0.61130000  0.25000000  0.00000000
C        C    0.25000000  0.75000000  0.61130000  0.00000000
C        C    0.38870000  0.25000000  0.25000000  0.00000000
C        C    0.25000000  0.11130000  0.25000000  0.00000000
C        C    0.75000000  0.25000000  0.11130000  0.00000000
C        C    0.88870000  0.75000000  0.25000000  0.00000000
C        C    0.75000000  0.61130000  0.25000000  0.00000000
C        C    0.75000000  0.88870000  0.25000000  0.00000000
C        C    0.25000000  0.25000000  0.55380000  0.00000000
C        C    0.55380000  0.75000000  0.75000000  0.00000000
C        C    0.25000000  0.94620000  0.25000000  0.00000000
C        C    0.75000000  0.25000000  0.94620000  0.00000000
C        C    0.05380000  0.25000000  0.75000000  0.00000000
C        C    0.05380000  0.75000000  0.25000000  0.00000000
C        C    0.75000000  0.55380000  0.75000000  0.00000000
C        C    0.75000000  0.44620000  0.25000000  0.00000000
C        C    0.25000000  0.44620000  0.75000000  0.00000000
C        C    0.75000000  0.75000000  0.05380000  0.00000000
C        C    0.75000000  0.05380000  0.75000000  0.00000000
C        C    0.25000000  0.55380000  0.75000000  0.00000000
C        C    0.25000000  0.25000000  0.44620000  0.00000000
C        C    0.25000000  0.25000000  0.94620000  0.00000000
C        C    0.75000000  0.94620000  0.75000000  0.00000000
C        C    0.75000000  0.05380000  0.25000000  0.00000000
C        C    0.05380000  0.75000000  0.75000000  0.00000000
C        C    0.55380000  0.25000000  0.75000000  0.00000000
C        C    0.75000000  0.25000000  0.55380000  0.00000000
C        C    0.25000000  0.94620000  0.75000000  0.00000000
C        C    0.25000000  0.44620000  0.25000000  0.00000000
C        C    0.75000000  0.75000000  0.44620000  0.00000000
C        C    0.25000000  0.75000000  0.94620000  0.00000000
C        C    0.44620000  0.25000000  0.75000000  0.00000000
C        C    0.25000000  0.75000000  0.44620000  0.00000000
C        C    0.25000000  0.75000000  0.05380000  0.00000000
C        C    0.44620000  0.75000000  0.25000000  0.00000000
C        C    0.25000000  0.05380000  0.75000000  0.00000000
C        C    0.94620000  0.25000000  0.25000000  0.00000000
C        C    0.75000000  0.25000000  0.44620000  0.00000000
C        C    0.25000000  0.25000000  0.05380000  0.00000000
C        C    0.44620000  0.75000000  0.75000000  0.00000000
C        C    0.55380000  0.75000000  0.25000000  0.00000000
C        C    0.75000000  0.75000000  0.94620000  0.00000000
C        C    0.55380000  0.25000000  0.25000000  0.00000000
C        C    0.94620000  0.25000000  0.75000000  0.00000000
C        C    0.94620000  0.75000000  0.75000000  0.00000000
C        C    0.75000000  0.75000000  0.55380000  0.00000000
C        C    0.75000000  0.44620000  0.75000000  0.00000000
C        C    0.05380000  0.25000000  0.25000000  0.00000000
C        C    0.25000000  0.55380000  0.25000000  0.00000000
C        C    0.25000000  0.75000000  0.55380000  0.00000000
C        C    0.44620000  0.25000000  0.25000000  0.00000000
C        C    0.25000000  0.05380000  0.25000000  0.00000000
C        C    0.75000000  0.25000000  0.05380000  0.00000000
C        C    0.94620000  0.75000000  0.25000000  0.00000000
C        C    0.75000000  0.55380000  0.25000000  0.00000000
C        C    0.75000000  0.94620000  0.25000000  0.00000000
C        C    0.21710000  0.21710000  0.52690000  0.00000000
C        C    0.21710000  0.78290000  0.47310000  0.00000000
C        C    0.71710000  0.02690000  0.78290000  0.00000000
C        C    0.97310000  0.28290000  0.21710000  0.00000000
C        C    0.71710000  0.02690000  0.21710000  0.00000000
C        C    0.28290000  0.28290000  0.47310000  0.00000000
C        C    0.71710000  0.52690000  0.28290000  0.00000000
C        C    0.71710000  0.78290000  0.02690000  0.00000000
C        C    0.21710000  0.02690000  0.71710000  0.00000000
C        C    0.02690000  0.71710000  0.21710000  0.00000000
C        C    0.21710000  0.97310000  0.28290000  0.00000000
C        C    0.21710000  0.78290000  0.52690000  0.00000000
C        C    0.71710000  0.28290000  0.47310000  0.00000000
C        C    0.21710000  0.71710000  0.97310000  0.00000000
C        C    0.21710000  0.71710000  0.02690000  0.00000000
C        C    0.97310000  0.71710000  0.21710000  0.00000000
C        C    0.02690000  0.28290000  0.78290000  0.00000000
C        C    0.52690000  0.28290000  0.28290000  0.00000000
C        C    0.21710000  0.52690000  0.78290000  0.00000000
C        C    0.52690000  0.78290000  0.78290000  0.00000000
C        C    0.21710000  0.28290000  0.02690000  0.00000000
C        C    0.21710000  0.47310000  0.21710000  0.00000000
C        C    0.78290000  0.97310000  0.71710000  0.00000000
C        C    0.71710000  0.47310000  0.28290000  0.00000000
C        C    0.28290000  0.28290000  0.52690000  0.00000000
C        C    0.78290000  0.28290000  0.97310000  0.00000000
C        C    0.02690000  0.71710000  0.78290000  0.00000000
C        C    0.28290000  0.02690000  0.21710000  0.00000000
C        C    0.21710000  0.47310000  0.78290000  0.00000000
C        C    0.71710000  0.52690000  0.71710000  0.00000000
C        C    0.28290000  0.97310000  0.78290000  0.00000000
C        C    0.52690000  0.71710000  0.71710000  0.00000000
C        C    0.21710000  0.28290000  0.97310000  0.00000000
C        C    0.28290000  0.97310000  0.21710000  0.00000000
C        C    0.71710000  0.21710000  0.97310000  0.00000000
C        C    0.02690000  0.21710000  0.71710000  0.00000000
C        C    0.02690000  0.78290000  0.28290000  0.00000000
C        C    0.78290000  0.52690000  0.78290000  0.00000000
C        C    0.78290000  0.47310000  0.21710000  0.00000000
C        C    0.28290000  0.47310000  0.71710000  0.00000000
C        C    0.71710000  0.21710000  0.02690000  0.00000000
C        C    0.71710000  0.71710000  0.52690000  0.00000000
C        C    0.47310000  0.78290000  0.78290000  0.00000000
C        C    0.78290000  0.71710000  0.02690000  0.00000000
C        C    0.78290000  0.78290000  0.47310000  0.00000000
C        C    0.97310000  0.21710000  0.71710000  0.00000000
C        C    0.78290000  0.02690000  0.71710000  0.00000000
C        C    0.28290000  0.52690000  0.71710000  0.00000000
C        C    0.52690000  0.21710000  0.78290000  0.00000000
C        C    0.52690000  0.71710000  0.28290000  0.00000000
C        C    0.21710000  0.21710000  0.47310000  0.00000000
C        C    0.28290000  0.21710000  0.97310000  0.00000000
C        C    0.21710000  0.52690000  0.21710000  0.00000000
C        C    0.47310000  0.28290000  0.71710000  0.00000000
C        C    0.71710000  0.97310000  0.78290000  0.00000000
C        C    0.78290000  0.02690000  0.28290000  0.00000000
C        C    0.02690000  0.78290000  0.71710000  0.00000000
C        C    0.71710000  0.28290000  0.52690000  0.00000000
C        C    0.52690000  0.28290000  0.71710000  0.00000000
C        C    0.47310000  0.28290000  0.28290000  0.00000000
C        C    0.78290000  0.21710000  0.52690000  0.00000000
C        C    0.02690000  0.21710000  0.28290000  0.00000000
C        C    0.21710000  0.97310000  0.71710000  0.00000000
C        C    0.47310000  0.71710000  0.28290000  0.00000000
C        C    0.28290000  0.47310000  0.28290000  0.00000000
C        C    0.71710000  0.71710000  0.47310000  0.00000000
C        C    0.71710000  0.78290000  0.97310000  0.00000000
C        C    0.28290000  0.78290000  0.97310000  0.00000000
C        C    0.47310000  0.21710000  0.78290000  0.00000000
C        C    0.28290000  0.71710000  0.47310000  0.00000000
C        C    0.28290000  0.78290000  0.02690000  0.00000000
C        C    0.47310000  0.78290000  0.21710000  0.00000000
C        C    0.28290000  0.02690000  0.78290000  0.00000000
C        C    0.97310000  0.21710000  0.28290000  0.00000000
C        C    0.78290000  0.21710000  0.47310000  0.00000000
C        C    0.28290000  0.21710000  0.02690000  0.00000000
C        C    0.47310000  0.71710000  0.71710000  0.00000000
C        C    0.52690000  0.78290000  0.21710000  0.00000000
C        C    0.78290000  0.47310000  0.78290000  0.00000000
C        C    0.78290000  0.71710000  0.97310000  0.00000000
C        C    0.52690000  0.21710000  0.21710000  0.00000000
C        C    0.97310000  0.28290000  0.78290000  0.00000000
C        C    0.97310000  0.78290000  0.71710000  0.00000000
C        C    0.97310000  0.71710000  0.78290000  0.00000000
C        C    0.71710000  0.97310000  0.21710000  0.00000000
C        C    0.78290000  0.78290000  0.52690000  0.00000000
C        C    0.71710000  0.47310000  0.71710000  0.00000000
C        C    0.02690000  0.28290000  0.21710000  0.00000000
C        C    0.28290000  0.52690000  0.28290000  0.00000000
C        C    0.28290000  0.71710000  0.52690000  0.00000000
C        C    0.47310000  0.21710000  0.21710000  0.00000000
C        C    0.21710000  0.02690000  0.28290000  0.00000000
C        C    0.78290000  0.28290000  0.02690000  0.00000000
C        C    0.97310000  0.78290000  0.28290000  0.00000000
C        C    0.78290000  0.52690000  0.21710000  0.00000000
C        C    0.78290000  0.97310000  0.28290000  0.00000000
H        H    0.19510000  0.19510000  0.54480000  0.00000000
H        H    0.19510000  0.80490000  0.45520000  0.00000000
H        H    0.69510000  0.04480000  0.80490000  0.00000000
H        H    0.95520000  0.30490000  0.19510000  0.00000000
H        H    0.69510000  0.04480000  0.19510000  0.00000000
H        H    0.30490000  0.30490000  0.45520000  0.00000000
H        H    0.69510000  0.54480000  0.30490000  0.00000000
H        H    0.69510000  0.80490000  0.04480000  0.00000000
H        H    0.19510000  0.04480000  0.69510000  0.00000000
H        H    0.04480000  0.69510000  0.19510000  0.00000000
H        H    0.19510000  0.95520000  0.30490000  0.00000000
H        H    0.19510000  0.80490000  0.54480000  0.00000000
H        H    0.69510000  0.30490000  0.45520000  0.00000000
H        H    0.19510000  0.69510000  0.95520000  0.00000000
H        H    0.19510000  0.69510000  0.04480000  0.00000000
H        H    0.95520000  0.69510000  0.19510000  0.00000000
H        H    0.04480000  0.30490000  0.80490000  0.00000000
H        H    0.54480000  0.30490000  0.30490000  0.00000000
H        H    0.19510000  0.54480000  0.80490000  0.00000000
H        H    0.54480000  0.80490000  0.80490000  0.00000000
H        H    0.19510000  0.30490000  0.04480000  0.00000000
H        H    0.19510000  0.45520000  0.19510000  0.00000000
H        H    0.80490000  0.95520000  0.69510000  0.00000000
H        H    0.69510000  0.45520000  0.30490000  0.00000000
H        H    0.30490000  0.30490000  0.54480000  0.00000000
H        H    0.80490000  0.30490000  0.95520000  0.00000000
H        H    0.04480000  0.69510000  0.80490000  0.00000000
H        H    0.30490000  0.04480000  0.19510000  0.00000000
H        H    0.19510000  0.45520000  0.80490000  0.00000000
H        H    0.69510000  0.54480000  0.69510000  0.00000000
H        H    0.30490000  0.95520000  0.80490000  0.00000000
H        H    0.54480000  0.69510000  0.69510000  0.00000000
H        H    0.19510000  0.30490000  0.95520000  0.00000000
H        H    0.30490000  0.95520000  0.19510000  0.00000000
H        H    0.69510000  0.19510000  0.95520000  0.00000000
H        H    0.04480000  0.19510000  0.69510000  0.00000000
H        H    0.04480000  0.80490000  0.30490000  0.00000000
H        H    0.80490000  0.54480000  0.80490000  0.00000000
H        H    0.80490000  0.45520000  0.19510000  0.00000000
H        H    0.30490000  0.45520000  0.69510000  0.00000000
H        H    0.69510000  0.19510000  0.04480000  0.00000000
H        H    0.69510000  0.69510000  0.54480000  0.00000000
H        H    0.45520000  0.80490000  0.80490000  0.00000000
H        H    0.80490000  0.69510000  0.04480000  0.00000000
H        H    0.80490000  0.80490000  0.45520000  0.00000000
H        H    0.95520000  0.19510000  0.69510000  0.00000000
H        H    0.80490000  0.04480000  0.69510000  0.00000000
H        H    0.30490000  0.54480000  0.69510000  0.00000000
H        H    0.54480000  0.19510000  0.80490000  0.00000000
H        H    0.54480000  0.69510000  0.30490000  0.00000000
H        H    0.19510000  0.19510000  0.45520000  0.00000000
H        H    0.30490000  0.19510000  0.95520000  0.00000000
H        H    0.19510000  0.54480000  0.19510000  0.00000000
H        H    0.45520000  0.30490000  0.69510000  0.00000000
H        H    0.69510000  0.95520000  0.80490000  0.00000000
H        H    0.80490000  0.04480000  0.30490000  0.00000000
H        H    0.04480000  0.80490000  0.69510000  0.00000000
H        H    0.69510000  0.30490000  0.54480000  0.00000000
H        H    0.54480000  0.30490000  0.69510000  0.00000000
H        H    0.45520000  0.30490000  0.30490000  0.00000000
H        H    0.80490000  0.19510000  0.54480000  0.00000000
H        H    0.04480000  0.19510000  0.30490000  0.00000000
H        H    0.19510000  0.95520000  0.69510000  0.00000000
H        H    0.45520000  0.69510000  0.30490000  0.00000000
H        H    0.30490000  0.45520000  0.30490000  0.00000000
H        H    0.69510000  0.69510000  0.45520000  0.00000000
H        H    0.69510000  0.80490000  0.95520000  0.00000000
H        H    0.30490000  0.80490000  0.95520000  0.00000000
H        H    0.45520000  0.19510000  0.80490000  0.00000000
H        H    0.30490000  0.69510000  0.45520000  0.00000000
H        H    0.30490000  0.80490000  0.04480000  0.00000000
H        H    0.45520000  0.80490000  0.19510000  0.00000000
H        H    0.30490000  0.04480000  0.80490000  0.00000000
H        H    0.95520000  0.19510000  0.30490000  0.00000000
H        H    0.80490000  0.19510000  0.45520000  0.00000000
H        H    0.30490000  0.19510000  0.04480000  0.00000000
H        H    0.45520000  0.69510000  0.69510000  0.00000000
H        H    0.54480000  0.80490000  0.19510000  0.00000000
H        H    0.80490000  0.45520000  0.80490000  0.00000000
H        H    0.80490000  0.69510000  0.95520000  0.00000000
H        H    0.54480000  0.19510000  0.19510000  0.00000000
H        H    0.95520000  0.30490000  0.80490000  0.00000000
H        H    0.95520000  0.80490000  0.69510000  0.00000000
H        H    0.95520000  0.69510000  0.80490000  0.00000000
H        H    0.69510000  0.95520000  0.19510000  0.00000000
H        H    0.80490000  0.80490000  0.54480000  0.00000000
H        H    0.69510000  0.45520000  0.69510000  0.00000000
H        H    0.04480000  0.30490000  0.19510000  0.00000000
H        H    0.30490000  0.54480000  0.30490000  0.00000000
H        H    0.30490000  0.69510000  0.54480000  0.00000000
H        H    0.45520000  0.19510000  0.19510000  0.00000000
H        H    0.19510000  0.04480000  0.30490000  0.00000000
H        H    0.80490000  0.30490000  0.04480000  0.00000000
H        H    0.95520000  0.80490000  0.30490000  0.00000000
H        H    0.80490000  0.54480000  0.19510000  0.00000000
H        H    0.80490000  0.95520000  0.30490000  0.00000000
