data_MIL-100

_cell_length_a  72.90570000
_cell_length_b  72.90570000
_cell_length_c  72.90570000
_cell_angle_alpha  90.00000000
_cell_angle_beta  90.00000000
_cell_angle_gamma  90.00000000


_symmetry_space_group_name_Hall ' P 1'
_symmetry_space_group_name_H-M  'P 1'
_symmetry_Int_Tables_number     1

loop_
_atom_site_label
_atom_site_type_symbol
_atom_site_fract_x
_atom_site_fract_y
_atom_site_fract_z
_atom_site_charge
Cr       Cr   0.72740000  0.05479960  0.45339900  1.85900000
Cr       Cr   0.22740100  0.55480000  0.45339900  1.85900000
Cr       Cr   0.22740100  0.05479960  0.95340000  1.85900000
Cr       Cr   0.72740000  0.55480000  0.95340000  1.85900000
Cr       Cr   0.63030100  0.01359980  0.33999900  1.85900000
Cr       Cr   0.13030000  0.51360000  0.33999900  1.85900000
Cr       Cr   0.13030000  0.01359980  0.84000000  1.85900000
Cr       Cr   0.63030100  0.51360000  0.84000000  1.85900000
O        O    0.18290100  0.09570030  0.04370030 -0.73100000
O        O    0.68290000  0.59570000  0.04370030 -0.73100000
O        O    0.68290000  0.09570030  0.54370000 -0.73100000
O        O    0.18290100  0.59570000  0.54370000 -0.73100000
O        O    0.16440000  0.11530000  0.06500040 -0.73100000
O        O    0.66439900  0.61530000  0.06500040 -0.73100000
O        O    0.66439900  0.11530000  0.56500000 -0.73100000
O        O    0.16440000  0.61530000  0.56500000 -0.73100000
O        O    0.62350000  0.09829960  0.41150000 -0.58700000
O        O    0.12350100  0.59830000  0.41150000 -0.58700000
O        O    0.12350100  0.09829960  0.91149900 -0.58700000
O        O    0.62350000  0.59830000  0.91149900 -0.58700000
O        O    0.60010000  0.12840000  0.34870000 -0.58700000
O        O    0.10010100  0.62839900  0.34870000 -0.58700000
O        O    0.10010100  0.12840000  0.84870000 -0.58700000
O        O    0.60010000  0.62839900  0.84870000 -0.58700000
O        O    0.61540000  0.09040030  0.38390000 -0.58700000
O        O    0.11540000  0.59040000  0.38390000 -0.58700000
O        O    0.11540000  0.09040030  0.88389900 -0.58700000
O        O    0.61540000  0.59040000  0.88389900 -0.58700000
O        O    0.69910000  0.07640010  0.48230000 -0.73100000
O        O    0.19910000  0.57639900  0.48230000 -0.73100000
O        O    0.19910000  0.07640010  0.98230000 -0.73100000
O        O    0.69910000  0.57639900  0.98230000 -0.73100000
O        O    0.66090000  0.06139990  0.44809900 -0.73100000
O        O    0.16090000  0.56140100  0.44809900 -0.73100000
O        O    0.16090000  0.06139990  0.94810000 -0.73100000
O        O    0.66090000  0.56140100  0.94810000 -0.73100000
O        O    0.72800100  0.07240040  0.47340100 -0.73100000
O        O    0.22800000  0.57240000  0.47340100 -0.73100000
O        O    0.22800000  0.07240040  0.97340000 -0.73100000
O        O    0.72800100  0.57240000  0.97340000 -0.73100000
O        O    0.71580000  0.47230100  0.01210060 -0.73100000
O        O    0.21579900  0.97230000  0.01210060 -0.73100000
O        O    0.21579900  0.47230100  0.51210000 -0.73100000
O        O    0.71580000  0.97230000  0.51210000 -0.73100000
O        O    0.72530000  0.04619940  0.43020000 -0.73100000
O        O    0.22530100  0.54620000  0.43020000 -0.73100000
O        O    0.22530100  0.04619940  0.93020000 -0.73100000
O        O    0.72530000  0.54620000  0.93020000 -0.73100000
O        O    0.67390100  0.03469960  0.44050100 -0.58700000
O        O    0.17390000  0.53470000  0.44050100 -0.58700000
O        O    0.17390000  0.03469960  0.94050000 -0.58700000
O        O    0.67390100  0.53470000  0.94050000 -0.58700000
O        O    0.15840100  0.49870000  0.30330000 -0.58700000
O        O    0.65840000  0.99870000  0.30330000 -0.58700000
O        O    0.65840000  0.49870000  0.80330100 -0.58700000
O        O    0.15840100  0.99870000  0.80330100 -0.58700000
O        O    0.52740000  0.16980000  0.32030000 -0.73100000
O        O    0.02739980  0.66979900  0.32030000 -0.73100000
O        O    0.02739980  0.16980000  0.82029900 -0.73100000
O        O    0.52740000  0.66979900  0.82029900 -0.73100000
O        O    0.63120000  0.00990046  0.31339900 -0.73100000
O        O    0.13120000  0.50990000  0.31339900 -0.73100000
O        O    0.13120000  0.00990046  0.81340000 -0.73100000
O        O    0.63120000  0.50990000  0.81340000 -0.73100000
O        O    0.53819900  0.14070000  0.32920100 -0.73100000
O        O    0.03820000  0.64070000  0.32920100 -0.73100000
O        O    0.03820000  0.14070000  0.82920000 -0.73100000
O        O    0.53819900  0.64070000  0.82920000 -0.73100000
O        O    0.63159900  0.02499940  0.36340000 -0.73100000
O        O    0.13160000  0.52500000  0.36340000 -0.73100000
O        O    0.13160000  0.02499940  0.86340000 -0.73100000
O        O    0.63159900  0.52500000  0.86340000 -0.73100000
O        O    0.64849900  0.00680057  0.38160000 -0.73100000
O        O    0.14850000  0.50680000  0.38160000 -0.73100000
O        O    0.14850000  0.00680057  0.88160000 -0.73100000
O        O    0.64849900  0.50680000  0.88160000 -0.73100000
C        C    0.57500000  0.15110100  0.33170000  0.11000000
C        C    0.07499960  0.65110000  0.33170000  0.11000000
C        C    0.07499960  0.15110100  0.83170000  0.11000000
C        C    0.57500000  0.65110000  0.83170000  0.11000000
C        C    0.56159900  0.16440000  0.32089900 -0.27400000
C        C    0.06160010  0.66439900  0.32089900 -0.27400000
C        C    0.06160010  0.16440000  0.82090000 -0.27400000
C        C    0.56159900  0.66439900  0.82090000 -0.27400000
C        C    0.54149900  0.15770000  0.32210000  0.84800000
C        C    0.04150020  0.65770000  0.32210000  0.84800000
C        C    0.04150020  0.15770000  0.82210000  0.84800000
C        C    0.54149900  0.65770000  0.82210000  0.84800000
C        C    0.20920000  0.08999980  0.01610030  0.11000000
C        C    0.70920000  0.59000100  0.01610030  0.11000000
C        C    0.70920000  0.08999980  0.51610000  0.11000000
C        C    0.20920000  0.59000100  0.51610000  0.11000000
C        C    0.22250000  0.08659950  0.00260062 -0.27400000
C        C    0.72250000  0.58660000  0.00260062 -0.27400000
C        C    0.72250000  0.08659950  0.50260000 -0.27400000
C        C    0.22250000  0.58660000  0.50260000 -0.27400000
C        C    0.71620100  0.07760020  0.48629900  0.84800000
C        C    0.21620000  0.57760000  0.48629900  0.84800000
C        C    0.21620000  0.07760020  0.98630000  0.84800000
C        C    0.71620100  0.57760000  0.98630000  0.84800000
C        C    0.64810000  0.04690030  0.42259900 -0.27400000
C        C    0.14810000  0.54690000  0.42259900 -0.27400000
C        C    0.14810000  0.04690030  0.92260000 -0.27400000
C        C    0.64810000  0.54690000  0.92260000 -0.27400000
C        C    0.64490000  0.03110040  0.41150000  0.11000000
C        C    0.14490000  0.53110000  0.41150000  0.11000000
C        C    0.14490000  0.03110040  0.91149900  0.11000000
C        C    0.64490000  0.53110000  0.91149900  0.11000000
C        C    0.63610000  0.03440060  0.39340000 -0.27400000
C        C    0.13610000  0.53440000  0.39340000 -0.27400000
C        C    0.13610000  0.03440060  0.89340100 -0.27400000
C        C    0.63610000  0.53440000  0.89340100 -0.27400000
C        C    0.62980000  0.05289980  0.38840000  0.11000000
C        C    0.12980100  0.55290100  0.38840000  0.11000000
C        C    0.12980100  0.05289980  0.88840000  0.11000000
C        C    0.62980000  0.55290100  0.88840000  0.11000000
C        C    0.63010000  0.06749950  0.40220000 -0.27400000
C        C    0.13010000  0.56750000  0.40220000 -0.27400000
C        C    0.13010000  0.06749950  0.90220000 -0.27400000
C        C    0.63010000  0.56750000  0.90220000 -0.27400000
C        C    0.63620000  0.06270020  0.42030000  0.11000000
C        C    0.13620100  0.56269900  0.42030000  0.11000000
C        C    0.13620100  0.06270020  0.92030000  0.11000000
C        C    0.63620000  0.56269900  0.92030000  0.11000000
C        C    0.62299900  0.08630050  0.39870000  0.84800000
C        C    0.12300000  0.58630000  0.39870000  0.84800000
C        C    0.12300000  0.08630050  0.89870100  0.84800000
C        C    0.62299900  0.58630000  0.89870100  0.84800000
C        C    0.63920000  0.02170060  0.37850000  0.84800000
C        C    0.13920000  0.52170000  0.37850000  0.84800000
C        C    0.13920000  0.02170060  0.87850100  0.84800000
C        C    0.63920000  0.52170000  0.87850100  0.84800000
C        C    0.66140000  0.04759980  0.43730100  0.84800000
C        C    0.16140000  0.54760100  0.43730100  0.84800000
C        C    0.16140000  0.04759980  0.93730000  0.84800000
C        C    0.66140000  0.54760100  0.93730000  0.84800000
C        C    0.71090100  0.01530060  0.37120000 -0.27400000
C        C    0.21090000  0.51530000  0.37120000 -0.27400000
C        C    0.21090000  0.01530060  0.87119900 -0.27400000
C        C    0.71090100  0.51530000  0.87119900 -0.27400000
C        C    0.70930000  0.01759940  0.39340000  0.11000000
C        C    0.20930100  0.51760000  0.39340000  0.11000000
C        C    0.20930100  0.01759940  0.89340100  0.11000000
C        C    0.70930000  0.51760000  0.89340100  0.11000000
C        C    0.13960000  0.49950000  0.30190000  0.84800000
C        C    0.63960000  0.99949900  0.30190000  0.84800000
C        C    0.63960000  0.49950000  0.80190000  0.84800000
C        C    0.13960000  0.99949900  0.80190000  0.84800000
H        H    0.67943200  0.11789200  0.43199100  0.10000000
H        H    0.17943300  0.61789300  0.43199100  0.10000000
H        H    0.17943300  0.11789200  0.93199200  0.10000000
H        H    0.67943200  0.61789300  0.93199200  0.10000000
H        H    0.73306100  0.10095500  0.41667500  0.10000000
H        H    0.23306100  0.60095400  0.41667500  0.10000000
H        H    0.23306100  0.10095500  0.91667600  0.10000000
H        H    0.73306100  0.60095400  0.91667600  0.10000000
H        H    0.10448400  0.06196770  0.10382300  0.10000000
H        H    0.60448400  0.56196800  0.10382300  0.10000000
H        H    0.60448400  0.06196770  0.60382400  0.10000000
H        H    0.10448400  0.56196800  0.60382400  0.10000000
H        H    0.61328700  0.17780400  0.33223200  0.10000000
H        H    0.11328600  0.67780400  0.33223200  0.10000000
H        H    0.11328600  0.17780400  0.83223100  0.10000000
H        H    0.61328700  0.67780400  0.83223100  0.10000000
H        H    0.62526100  0.19422100  0.37388800  0.10000000
H        H    0.12526000  0.69422000  0.37388800  0.10000000
H        H    0.12526000  0.19422100  0.87388800  0.10000000
H        H    0.62526100  0.69422000  0.87388800  0.10000000
H        H    0.19408200  0.09072950  0.01217330  0.10000000
H        H    0.69408200  0.59073000  0.01217330  0.10000000
H        H    0.69408200  0.09072950  0.51217300  0.10000000
H        H    0.19408200  0.59073000  0.51217300  0.10000000
H        H    0.69914700  0.01007190  0.40084000  0.10000000
H        H    0.19914800  0.51007100  0.40084000  0.10000000
H        H    0.19914800  0.01007190  0.90083900  0.10000000
H        H    0.69914700  0.51007100  0.90083900  0.10000000
Cr       Cr   0.52260000  0.19520000  0.45339900  1.85900000
Cr       Cr   0.02260040  0.69519900  0.45339900  1.85900000
Cr       Cr   0.02260040  0.19520000  0.95340000  1.85900000
Cr       Cr   0.52260000  0.69519900  0.95340000  1.85900000
Cr       Cr   0.61970100  0.23640000  0.33999900  1.85900000
Cr       Cr   0.11970000  0.73640100  0.33999900  1.85900000
Cr       Cr   0.11970000  0.23640000  0.84000000  1.85900000
Cr       Cr   0.61970100  0.73640100  0.84000000  1.85900000
O        O    0.06710040  0.15429900  0.04370030 -0.73100000
O        O    0.56710000  0.65430000  0.04370030 -0.73100000
O        O    0.56710000  0.15429900  0.54370000 -0.73100000
O        O    0.06710040  0.65430000  0.54370000 -0.73100000
O        O    0.08559960  0.13470000  0.06500040 -0.73100000
O        O    0.58560000  0.63469900  0.06500040 -0.73100000
O        O    0.58560000  0.13470000  0.56500000 -0.73100000
O        O    0.08559960  0.63469900  0.56500000 -0.73100000
O        O    0.62650000  0.15170000  0.41150000 -0.58700000
O        O    0.12650000  0.65169900  0.41150000 -0.58700000
O        O    0.12650000  0.15170000  0.91149900 -0.58700000
O        O    0.62650000  0.65169900  0.91149900 -0.58700000
O        O    0.64990000  0.12160000  0.34870000 -0.73100000
O        O    0.14990000  0.62160000  0.34870000 -0.73100000
O        O    0.14990000  0.12160000  0.84870000 -0.73100000
O        O    0.64990000  0.62160000  0.84870000 -0.73100000
O        O    0.63460100  0.15959900  0.38390000 -0.73100000
O        O    0.13460000  0.65960000  0.38390000 -0.73100000
O        O    0.13460000  0.15959900  0.88389900 -0.73100000
O        O    0.63460100  0.65960000  0.88389900 -0.73100000
O        O    0.55089900  0.17360000  0.48230000 -0.58700000
O        O    0.05090000  0.67360000  0.48230000 -0.58700000
O        O    0.05090000  0.17360000  0.98230000 -0.58700000
O        O    0.55089900  0.67360000  0.98230000 -0.58700000
O        O    0.58909900  0.18860000  0.44809900 -0.58700000
O        O    0.08910000  0.68860000  0.44809900 -0.58700000
O        O    0.08910000  0.18860000  0.94810000 -0.58700000
O        O    0.58909900  0.68860000  0.94810000 -0.58700000
O        O    0.52200000  0.17760100  0.47340100 -0.73100000
O        O    0.02199970  0.67760000  0.47340100 -0.73100000
O        O    0.02199970  0.17760100  0.97340000 -0.73100000
O        O    0.52200000  0.67760000  0.97340000 -0.73100000
O        O    0.03420030  0.27770000  0.01210060 -0.58700000
O        O    0.53420000  0.77770100  0.01210060 -0.58700000
O        O    0.53420000  0.27770000  0.51210000 -0.58700000
O        O    0.03420030  0.77770100  0.51210000 -0.58700000
O        O    0.52470000  0.20380000  0.43020000 -0.73100000
O        O    0.02470040  0.70380000  0.43020000 -0.73100000
O        O    0.02470040  0.20380000  0.93020000 -0.73100000
O        O    0.52470000  0.70380000  0.93020000 -0.73100000
O        O    0.57610000  0.21530000  0.44050100 -0.73100000
O        O    0.07609970  0.71529900  0.44050100 -0.73100000
O        O    0.07609970  0.21530000  0.94050000 -0.73100000
O        O    0.57610000  0.71529900  0.94050000 -0.73100000
O        O    0.59160000  0.25130000  0.30330000 -0.58700000
O        O    0.09160050  0.75130100  0.30330000 -0.58700000
O        O    0.09160050  0.25130000  0.80330100 -0.58700000
O        O    0.59160000  0.75130100  0.80330100 -0.58700000
O        O    0.72260100  0.08019950  0.32030000 -0.73100000
O        O    0.22260000  0.58020000  0.32030000 -0.73100000
O        O    0.22260000  0.08019950  0.82029900 -0.73100000
O        O    0.72260100  0.58020000  0.82029900 -0.73100000
O        O    0.61879900  0.24010100  0.31339900 -0.73100000
O        O    0.11880000  0.74010000  0.31339900 -0.73100000
O        O    0.11880000  0.24010100  0.81340000 -0.73100000
O        O    0.61879900  0.74010000  0.81340000 -0.73100000
O        O    0.71180000  0.10930000  0.32920100 -0.58700000
O        O    0.21180000  0.60929900  0.32920100 -0.58700000
O        O    0.21180000  0.10930000  0.82920000 -0.58700000
O        O    0.71180000  0.60929900  0.82920000 -0.58700000
O        O    0.61840000  0.22500000  0.36340000 -0.73100000
O        O    0.11840000  0.72500000  0.36340000 -0.73100000
O        O    0.11840000  0.22500000  0.86340000 -0.73100000
O        O    0.61840000  0.72500000  0.86340000 -0.73100000
O        O    0.60150000  0.24320000  0.38160000 -0.73100000
O        O    0.10150000  0.74320000  0.38160000 -0.73100000
O        O    0.10150000  0.24320000  0.88160000 -0.73100000
O        O    0.60150000  0.74320000  0.88160000 -0.73100000
C        C    0.67499900  0.09890040  0.33170000  0.11000000
C        C    0.17500000  0.59890000  0.33170000  0.11000000
C        C    0.17500000  0.09890040  0.83170000  0.11000000
C        C    0.67499900  0.59890000  0.83170000  0.11000000
C        C    0.68840000  0.08559960  0.32089900 -0.27400000
C        C    0.18840000  0.58560000  0.32089900 -0.27400000
C        C    0.18840000  0.08559960  0.82090000 -0.27400000
C        C    0.68840000  0.58560000  0.82090000 -0.27400000
C        C    0.70850000  0.09230010  0.32210000  0.84800000
C        C    0.20849900  0.59229900  0.32210000  0.84800000
C        C    0.20849900  0.09230010  0.82210000  0.84800000
C        C    0.70850000  0.59229900  0.82210000  0.84800000
C        C    0.04080070  0.16000000  0.01610030  0.11000000
C        C    0.54080000  0.66000100  0.01610030  0.11000000
C        C    0.54080000  0.16000000  0.51610000  0.11000000
C        C    0.04080070  0.66000100  0.51610000  0.11000000
C        C    0.02749990  0.16340000  0.00260062 -0.27400000
C        C    0.52750100  0.66339900  0.00260062 -0.27400000
C        C    0.52750100  0.16340000  0.50260000 -0.27400000
C        C    0.02749990  0.66339900  0.50260000 -0.27400000
C        C    0.53380100  0.17239900  0.48629900  0.84800000
C        C    0.03379980  0.67240000  0.48629900  0.84800000
C        C    0.03379980  0.17239900  0.98630000  0.84800000
C        C    0.53380100  0.67240000  0.98630000  0.84800000
C        C    0.60189900  0.20309900  0.42259900 -0.27400000
C        C    0.10190000  0.70310000  0.42259900 -0.27400000
C        C    0.10190000  0.20309900  0.92260000 -0.27400000
C        C    0.60189900  0.70310000  0.92260000 -0.27400000
C        C    0.60509900  0.21890100  0.41150000  0.11000000
C        C    0.10510000  0.71890000  0.41150000  0.11000000
C        C    0.10510000  0.21890100  0.91149900  0.11000000
C        C    0.60509900  0.71890000  0.91149900  0.11000000
C        C    0.61390000  0.21560000  0.39340000 -0.27400000
C        C    0.11390100  0.71560000  0.39340000 -0.27400000
C        C    0.11390100  0.21560000  0.89340100 -0.27400000
C        C    0.61390000  0.71560000  0.89340100 -0.27400000
C        C    0.62020000  0.19710000  0.38840000  0.11000000
C        C    0.12020000  0.69710100  0.38840000  0.11000000
C        C    0.12020000  0.19710000  0.88840000  0.11000000
C        C    0.62020000  0.69710100  0.88840000  0.11000000
C        C    0.61989900  0.18250000  0.40220000 -0.27400000
C        C    0.11990000  0.68249900  0.40220000 -0.27400000
C        C    0.11990000  0.18250000  0.90220000 -0.27400000
C        C    0.61989900  0.68249900  0.90220000 -0.27400000
C        C    0.61380000  0.18729900  0.42030000  0.11000000
C        C    0.11380000  0.68730000  0.42030000  0.11000000
C        C    0.11380000  0.18729900  0.92030000  0.11000000
C        C    0.61380000  0.68730000  0.92030000  0.11000000
C        C    0.62700000  0.16370100  0.39870000  0.84800000
C        C    0.12700000  0.66370000  0.39870000  0.84800000
C        C    0.12700000  0.16370100  0.89870100  0.84800000
C        C    0.62700000  0.66370000  0.89870100  0.84800000
C        C    0.61080000  0.22830000  0.37850000  0.84800000
C        C    0.11080100  0.72830000  0.37850000  0.84800000
C        C    0.11080100  0.22830000  0.87850100  0.84800000
C        C    0.61080000  0.72830000  0.87850100  0.84800000
C        C    0.58860000  0.20240000  0.43730100  0.84800000
C        C    0.08859940  0.70240000  0.43730100  0.84800000
C        C    0.08859940  0.20240000  0.93730000  0.84800000
C        C    0.58860000  0.70240000  0.93730000  0.84800000
C        C    0.53910100  0.23470000  0.37120000 -0.27400000
C        C    0.03909980  0.73470000  0.37120000 -0.27400000
C        C    0.03909980  0.23470000  0.87119900 -0.27400000
C        C    0.53910100  0.73470000  0.87119900 -0.27400000
C        C    0.54070000  0.23240000  0.39340000  0.11000000
C        C    0.04070050  0.73240000  0.39340000  0.11000000
C        C    0.04070050  0.23240000  0.89340100  0.11000000
C        C    0.54070000  0.73240000  0.89340100  0.11000000
C        C    0.61039900  0.25050000  0.30190000  0.84800000
C        C    0.11040000  0.75050000  0.30190000  0.84800000
C        C    0.11040000  0.25050000  0.80190000  0.84800000
C        C    0.61039900  0.75050000  0.80190000  0.84800000
H        H    0.57056700  0.13210800  0.43199100  0.10000000
H        H    0.07056650  0.63210800  0.43199100  0.10000000
H        H    0.07056650  0.13210800  0.93199200  0.10000000
H        H    0.57056700  0.63210800  0.93199200  0.10000000
H        H    0.51693900  0.14904600  0.41667500  0.10000000
H        H    0.01693970  0.64904500  0.41667500  0.10000000
H        H    0.01693970  0.14904600  0.91667600  0.10000000
H        H    0.51693900  0.64904500  0.91667600  0.10000000
H        H    0.63671400  0.07219600  0.33223200  0.10000000
H        H    0.13671400  0.57219700  0.33223200  0.10000000
H        H    0.13671400  0.07219600  0.83223100  0.10000000
H        H    0.63671400  0.57219700  0.83223100  0.10000000
H        H    0.62474000  0.05578030  0.37388800  0.10000000
H        H    0.12473900  0.55578000  0.37388800  0.10000000
H        H    0.12473900  0.05578030  0.87388800  0.10000000
H        H    0.62474000  0.55578000  0.87388800  0.10000000
H        H    0.05591740  0.15927000  0.01217330  0.10000000
H        H    0.55591800  0.65927100  0.01217330  0.10000000
H        H    0.55591800  0.15927000  0.51217300  0.10000000
H        H    0.05591740  0.65927100  0.51217300  0.10000000
H        H    0.55085300  0.23992900  0.40084000  0.10000000
H        H    0.05085200  0.73992800  0.40084000  0.10000000
H        H    0.05085200  0.23992900  0.90083900  0.10000000
H        H    0.55085300  0.73992800  0.90083900  0.10000000
Cr       Cr   0.02260040  0.05479960  0.29660000  1.85900000
Cr       Cr   0.52260000  0.55480000  0.29660000  1.85900000
Cr       Cr   0.52260000  0.05479960  0.79660000  1.85900000
Cr       Cr   0.02260040  0.55480000  0.79660000  1.85900000
Cr       Cr   0.11970000  0.01359980  0.40999900  1.85900000
Cr       Cr   0.61970100  0.51360000  0.40999900  1.85900000
Cr       Cr   0.61970100  0.01359980  0.91000000  1.85900000
Cr       Cr   0.11970000  0.51360000  0.91000000  1.85900000
O        O    0.06710040  0.09570030  0.20629900 -0.73100000
O        O    0.56710000  0.59570000  0.20629900 -0.73100000
O        O    0.56710000  0.09570030  0.70630000 -0.73100000
O        O    0.06710040  0.59570000  0.70630000 -0.73100000
O        O    0.08559960  0.11530000  0.18500100 -0.73100000
O        O    0.58560000  0.61530000  0.18500100 -0.73100000
O        O    0.58560000  0.11530000  0.68500000 -0.73100000
O        O    0.08559960  0.61530000  0.68500000 -0.73100000
O        O    0.12650000  0.09829960  0.33850000 -0.73100000
O        O    0.62650000  0.59830000  0.33850000 -0.73100000
O        O    0.62650000  0.09829960  0.83850000 -0.73100000
O        O    0.12650000  0.59830000  0.83850000 -0.73100000
O        O    0.14990000  0.12840000  0.40130100 -0.58700000
O        O    0.64990000  0.62839900  0.40130100 -0.58700000
O        O    0.64990000  0.12840000  0.90130000 -0.58700000
O        O    0.14990000  0.62839900  0.90130000 -0.58700000
O        O    0.13460000  0.09040030  0.36610000 -0.58700000
O        O    0.63460100  0.59040000  0.36610000 -0.58700000
O        O    0.63460100  0.09040030  0.86610000 -0.58700000
O        O    0.13460000  0.59040000  0.86610000 -0.58700000
O        O    0.05090000  0.07640010  0.26770100 -0.58700000
O        O    0.55089900  0.57639900  0.26770100 -0.58700000
O        O    0.55089900  0.07640010  0.76770000 -0.58700000
O        O    0.05090000  0.57639900  0.76770000 -0.58700000
O        O    0.08910000  0.06139990  0.30190000 -0.58700000
O        O    0.58909900  0.56140100  0.30190000 -0.58700000
O        O    0.58909900  0.06139990  0.80190000 -0.58700000
O        O    0.08910000  0.56140100  0.80190000 -0.58700000
O        O    0.02199970  0.07240040  0.27660000 -0.73100000
O        O    0.52200000  0.57240000  0.27660000 -0.73100000
O        O    0.52200000  0.07240040  0.77660000 -0.73100000
O        O    0.02199970  0.57240000  0.77660000 -0.73100000
O        O    0.53420000  0.47230100  0.23790000 -0.58700000
O        O    0.03420030  0.97230000  0.23790000 -0.58700000
O        O    0.03420030  0.47230100  0.73790000 -0.58700000
O        O    0.53420000  0.97230000  0.73790000 -0.58700000
O        O    0.02470040  0.04619940  0.31979900 -0.73100000
O        O    0.52470000  0.54620000  0.31979900 -0.73100000
O        O    0.52470000  0.04619940  0.81980000 -0.73100000
O        O    0.02470040  0.54620000  0.81980000 -0.73100000
O        O    0.07609970  0.03469960  0.30950000 -0.73100000
O        O    0.57610000  0.53470000  0.30950000 -0.73100000
O        O    0.57610000  0.03469960  0.80950000 -0.73100000
O        O    0.07609970  0.53470000  0.80950000 -0.73100000
O        O    0.59160000  0.49870000  0.44670000 -0.73100000
O        O    0.09160050  0.99870000  0.44670000 -0.73100000
O        O    0.09160050  0.49870000  0.94670000 -0.73100000
O        O    0.59160000  0.99870000  0.94670000 -0.73100000
O        O    0.22260000  0.16980000  0.42970000 -0.58700000
O        O    0.72260100  0.66979900  0.42970000 -0.58700000
O        O    0.72260100  0.16980000  0.92970000 -0.58700000
O        O    0.22260000  0.66979900  0.92970000 -0.58700000
O        O    0.11880000  0.00990046  0.43660000 -0.73100000
O        O    0.61879900  0.50990000  0.43660000 -0.73100000
O        O    0.61879900  0.00990046  0.93660000 -0.73100000
O        O    0.11880000  0.50990000  0.93660000 -0.73100000
O        O    0.21180000  0.14070000  0.42080000 -0.73100000
O        O    0.71180000  0.64070000  0.42080000 -0.73100000
O        O    0.71180000  0.14070000  0.92080000 -0.73100000
O        O    0.21180000  0.64070000  0.92080000 -0.73100000
O        O    0.11840000  0.02499940  0.38659900 -0.73100000
O        O    0.61840000  0.52500000  0.38659900 -0.73100000
O        O    0.61840000  0.02499940  0.88660000 -0.73100000
O        O    0.11840000  0.52500000  0.88660000 -0.73100000
O        O    0.10150000  0.00680057  0.36840100 -0.58700000
O        O    0.60150000  0.50680000  0.36840100 -0.58700000
O        O    0.60150000  0.00680057  0.86840000 -0.58700000
O        O    0.10150000  0.50680000  0.86840000 -0.58700000
C        C    0.17500000  0.15110100  0.41830100  0.11000000
C        C    0.67499900  0.65110000  0.41830100  0.11000000
C        C    0.67499900  0.15110100  0.91830000  0.11000000
C        C    0.17500000  0.65110000  0.91830000  0.11000000
C        C    0.18840000  0.16440000  0.42910000 -0.27400000
C        C    0.68840000  0.66439900  0.42910000 -0.27400000
C        C    0.68840000  0.16440000  0.92910000 -0.27400000
C        C    0.18840000  0.66439900  0.92910000 -0.27400000
C        C    0.20849900  0.15770000  0.42790100  0.84800000
C        C    0.70850000  0.65770000  0.42790100  0.84800000
C        C    0.70850000  0.15770000  0.92790000  0.84800000
C        C    0.20849900  0.65770000  0.92790000  0.84800000
C        C    0.04080070  0.08999980  0.23389900  0.11000000
C        C    0.54080000  0.59000100  0.23389900  0.11000000
C        C    0.54080000  0.08999980  0.73390000  0.11000000
C        C    0.04080070  0.59000100  0.73390000  0.11000000
C        C    0.02749990  0.08659950  0.24740000 -0.27400000
C        C    0.52750100  0.58660000  0.24740000 -0.27400000
C        C    0.52750100  0.08659950  0.74740000 -0.27400000
C        C    0.02749990  0.58660000  0.74740000 -0.27400000
C        C    0.03379980  0.07760020  0.26370000  0.84800000
C        C    0.53380100  0.57760000  0.26370000  0.84800000
C        C    0.53380100  0.07760020  0.76370000  0.84800000
C        C    0.03379980  0.57760000  0.76370000  0.84800000
C        C    0.10190000  0.04690030  0.32740000 -0.27400000
C        C    0.60189900  0.54690000  0.32740000 -0.27400000
C        C    0.60189900  0.04690030  0.82740000 -0.27400000
C        C    0.10190000  0.54690000  0.82740000 -0.27400000
C        C    0.10510000  0.03110040  0.33850000  0.11000000
C        C    0.60509900  0.53110000  0.33850000  0.11000000
C        C    0.60509900  0.03110040  0.83850000  0.11000000
C        C    0.10510000  0.53110000  0.83850000  0.11000000
C        C    0.11390100  0.03440060  0.35660000 -0.27400000
C        C    0.61390000  0.53440000  0.35660000 -0.27400000
C        C    0.61390000  0.03440060  0.85660000 -0.27400000
C        C    0.11390100  0.53440000  0.85660000 -0.27400000
C        C    0.12020000  0.05289980  0.36160000  0.11000000
C        C    0.62020000  0.55290100  0.36160000  0.11000000
C        C    0.62020000  0.05289980  0.86160100  0.11000000
C        C    0.12020000  0.55290100  0.86160100  0.11000000
C        C    0.11990000  0.06749950  0.34780000 -0.27400000
C        C    0.61989900  0.56750000  0.34780000 -0.27400000
C        C    0.61989900  0.06749950  0.84780100 -0.27400000
C        C    0.11990000  0.56750000  0.84780100 -0.27400000
C        C    0.11380000  0.06270020  0.32970000  0.11000000
C        C    0.61380000  0.56269900  0.32970000  0.11000000
C        C    0.61380000  0.06270020  0.82970100  0.11000000
C        C    0.11380000  0.56269900  0.82970100  0.11000000
C        C    0.12700000  0.08630050  0.35130000  0.84800000
C        C    0.62700000  0.58630000  0.35130000  0.84800000
C        C    0.62700000  0.08630050  0.85130000  0.84800000
C        C    0.12700000  0.58630000  0.85130000  0.84800000
C        C    0.11080100  0.02170060  0.37150000  0.84800000
C        C    0.61080000  0.52170000  0.37150000  0.84800000
C        C    0.61080000  0.02170060  0.87150000  0.84800000
C        C    0.11080100  0.52170000  0.87150000  0.84800000
C        C    0.08859940  0.04759980  0.31270000  0.84800000
C        C    0.58860000  0.54760100  0.31270000  0.84800000
C        C    0.58860000  0.04759980  0.81270100  0.84800000
C        C    0.08859940  0.54760100  0.81270100  0.84800000
C        C    0.03909980  0.01530060  0.37880000 -0.27400000
C        C    0.53910100  0.51530000  0.37880000 -0.27400000
C        C    0.53910100  0.01530060  0.87880000 -0.27400000
C        C    0.03909980  0.51530000  0.87880000 -0.27400000
C        C    0.04070050  0.01759940  0.35660000  0.11000000
C        C    0.54070000  0.51760000  0.35660000  0.11000000
C        C    0.54070000  0.01759940  0.85660000  0.11000000
C        C    0.04070050  0.51760000  0.85660000  0.11000000
C        C    0.61039900  0.49950000  0.44809900  0.84800000
C        C    0.11040000  0.99949900  0.44809900  0.84800000
C        C    0.11040000  0.49950000  0.94810000  0.84800000
C        C    0.61039900  0.99949900  0.94810000  0.84800000
H        H    0.07056650  0.11789200  0.31800800  0.10000000
H        H    0.57056700  0.61789300  0.31800800  0.10000000
H        H    0.57056700  0.11789200  0.81800900  0.10000000
H        H    0.07056650  0.61789300  0.81800900  0.10000000
H        H    0.01693970  0.10095500  0.33332400  0.10000000
H        H    0.51693900  0.60095400  0.33332400  0.10000000
H        H    0.51693900  0.10095500  0.83332400  0.10000000
H        H    0.01693970  0.60095400  0.83332400  0.10000000
H        H    0.13671400  0.17780400  0.41776800  0.10000000
H        H    0.63671400  0.67780400  0.41776800  0.10000000
H        H    0.63671400  0.17780400  0.91776900  0.10000000
H        H    0.13671400  0.67780400  0.91776900  0.10000000
H        H    0.18998900  0.18962300  0.44518700  0.10000000
H        H    0.68998900  0.68962400  0.44518700  0.10000000
H        H    0.68998900  0.18962300  0.94518800  0.10000000
H        H    0.18998900  0.68962400  0.94518800  0.10000000
H        H    0.12473900  0.19422100  0.37611200  0.10000000
H        H    0.62474000  0.69422000  0.37611200  0.10000000
H        H    0.62474000  0.19422100  0.87611300  0.10000000
H        H    0.12473900  0.69422000  0.87611300  0.10000000
H        H    0.05591740  0.09072950  0.23782800  0.10000000
H        H    0.55591800  0.59073000  0.23782800  0.10000000
H        H    0.55591800  0.09072950  0.73782700  0.10000000
H        H    0.05591740  0.59073000  0.73782700  0.10000000
H        H    0.05085200  0.01007190  0.34916100  0.10000000
H        H    0.55085300  0.51007100  0.34916100  0.10000000
H        H    0.55085300  0.01007190  0.84916000  0.10000000
H        H    0.05085200  0.51007100  0.84916000  0.10000000
Cr       Cr   0.22740100  0.19520000  0.29660000  1.85900000
Cr       Cr   0.72740000  0.69519900  0.29660000  1.85900000
Cr       Cr   0.72740000  0.19520000  0.79660000  1.85900000
Cr       Cr   0.22740100  0.69519900  0.79660000  1.85900000
Cr       Cr   0.13030000  0.23640000  0.40999900  1.85900000
Cr       Cr   0.63030100  0.73640100  0.40999900  1.85900000
Cr       Cr   0.63030100  0.23640000  0.91000000  1.85900000
Cr       Cr   0.13030000  0.73640100  0.91000000  1.85900000
O        O    0.18290100  0.15429900  0.20629900 -0.58700000
O        O    0.68290000  0.65430000  0.20629900 -0.58700000
O        O    0.68290000  0.15429900  0.70630000 -0.58700000
O        O    0.18290100  0.65430000  0.70630000 -0.58700000
O        O    0.16440000  0.13470000  0.18500100 -0.58700000
O        O    0.66439900  0.63469900  0.18500100 -0.58700000
O        O    0.66439900  0.13470000  0.68500000 -0.58700000
O        O    0.16440000  0.63469900  0.68500000 -0.58700000
O        O    0.12350100  0.15170000  0.33850000 -0.73100000
O        O    0.62350000  0.65169900  0.33850000 -0.73100000
O        O    0.62350000  0.15170000  0.83850000 -0.73100000
O        O    0.12350100  0.65169900  0.83850000 -0.73100000
O        O    0.10010100  0.12160000  0.40130100 -0.73100000
O        O    0.60010000  0.62160000  0.40130100 -0.73100000
O        O    0.60010000  0.12160000  0.90130000 -0.73100000
O        O    0.10010100  0.62160000  0.90130000 -0.73100000
O        O    0.11540000  0.15959900  0.36610000 -0.73100000
O        O    0.61540000  0.65960000  0.36610000 -0.73100000
O        O    0.61540000  0.15959900  0.86610000 -0.73100000
O        O    0.11540000  0.65960000  0.86610000 -0.73100000
O        O    0.19910000  0.17360000  0.26770100 -0.73100000
O        O    0.69910000  0.67360000  0.26770100 -0.73100000
O        O    0.69910000  0.17360000  0.76770000 -0.73100000
O        O    0.19910000  0.67360000  0.76770000 -0.73100000
O        O    0.16090000  0.18860000  0.30190000 -0.73100000
O        O    0.66090000  0.68860000  0.30190000 -0.73100000
O        O    0.66090000  0.18860000  0.80190000 -0.73100000
O        O    0.16090000  0.68860000  0.80190000 -0.73100000
O        O    0.22800000  0.17760100  0.27660000 -0.73100000
O        O    0.72800100  0.67760000  0.27660000 -0.73100000
O        O    0.72800100  0.17760100  0.77660000 -0.73100000
O        O    0.22800000  0.67760000  0.77660000 -0.73100000
O        O    0.21579900  0.27770000  0.23790000 -0.73100000
O        O    0.71580000  0.77770100  0.23790000 -0.73100000
O        O    0.71580000  0.27770000  0.73790000 -0.73100000
O        O    0.21579900  0.77770100  0.73790000 -0.73100000
O        O    0.22530100  0.20380000  0.31979900 -0.73100000
O        O    0.72530000  0.70380000  0.31979900 -0.73100000
O        O    0.72530000  0.20380000  0.81980000 -0.73100000
O        O    0.22530100  0.70380000  0.81980000 -0.73100000
O        O    0.17390000  0.21530000  0.30950000 -0.58700000
O        O    0.67390100  0.71529900  0.30950000 -0.58700000
O        O    0.67390100  0.21530000  0.80950000 -0.58700000
O        O    0.17390000  0.71529900  0.80950000 -0.58700000
O        O    0.15840100  0.25130000  0.44670000 -0.73100000
O        O    0.65840000  0.75130100  0.44670000 -0.73100000
O        O    0.65840000  0.25130000  0.94670000 -0.73100000
O        O    0.15840100  0.75130100  0.94670000 -0.73100000
O        O    0.02739980  0.08019950  0.42970000 -0.58700000
O        O    0.52740000  0.58020000  0.42970000 -0.58700000
O        O    0.52740000  0.08019950  0.92970000 -0.58700000
O        O    0.02739980  0.58020000  0.92970000 -0.58700000
O        O    0.13120000  0.24010100  0.43660000 -0.73100000
O        O    0.63120000  0.74010000  0.43660000 -0.73100000
O        O    0.63120000  0.24010100  0.93660000 -0.73100000
O        O    0.13120000  0.74010000  0.93660000 -0.73100000
O        O    0.03820000  0.10930000  0.42080000 -0.73100000
O        O    0.53819900  0.60929900  0.42080000 -0.73100000
O        O    0.53819900  0.10930000  0.92080000 -0.73100000
O        O    0.03820000  0.60929900  0.92080000 -0.73100000
O        O    0.13160000  0.22500000  0.38659900 -0.73100000
O        O    0.63159900  0.72500000  0.38659900 -0.73100000
O        O    0.63159900  0.22500000  0.88660000 -0.73100000
O        O    0.13160000  0.72500000  0.88660000 -0.73100000
O        O    0.14850000  0.24320000  0.36840100 -0.73100000
O        O    0.64849900  0.74320000  0.36840100 -0.73100000
O        O    0.64849900  0.24320000  0.86840000 -0.73100000
O        O    0.14850000  0.74320000  0.86840000 -0.73100000
C        C    0.07499960  0.09890040  0.41830100  0.11000000
C        C    0.57500000  0.59890000  0.41830100  0.11000000
C        C    0.57500000  0.09890040  0.91830000  0.11000000
C        C    0.07499960  0.59890000  0.91830000  0.11000000
C        C    0.06160010  0.08559960  0.42910000 -0.27400000
C        C    0.56159900  0.58560000  0.42910000 -0.27400000
C        C    0.56159900  0.08559960  0.92910000 -0.27400000
C        C    0.06160010  0.58560000  0.92910000 -0.27400000
C        C    0.04150020  0.09230010  0.42790100  0.84800000
C        C    0.54149900  0.59229900  0.42790100  0.84800000
C        C    0.54149900  0.09230010  0.92790000  0.84800000
C        C    0.04150020  0.59229900  0.92790000  0.84800000
C        C    0.20920000  0.16000000  0.23389900  0.11000000
C        C    0.70920000  0.66000100  0.23389900  0.11000000
C        C    0.70920000  0.16000000  0.73390000  0.11000000
C        C    0.20920000  0.66000100  0.73390000  0.11000000
C        C    0.22250000  0.16340000  0.24740000 -0.27400000
C        C    0.72250000  0.66339900  0.24740000 -0.27400000
C        C    0.72250000  0.16340000  0.74740000 -0.27400000
C        C    0.22250000  0.66339900  0.74740000 -0.27400000
C        C    0.21620000  0.17239900  0.26370000  0.84800000
C        C    0.71620100  0.67240000  0.26370000  0.84800000
C        C    0.71620100  0.17239900  0.76370000  0.84800000
C        C    0.21620000  0.67240000  0.76370000  0.84800000
C        C    0.14810000  0.20309900  0.32740000 -0.27400000
C        C    0.64810000  0.70310000  0.32740000 -0.27400000
C        C    0.64810000  0.20309900  0.82740000 -0.27400000
C        C    0.14810000  0.70310000  0.82740000 -0.27400000
C        C    0.14490000  0.21890100  0.33850000  0.11000000
C        C    0.64490000  0.71890000  0.33850000  0.11000000
C        C    0.64490000  0.21890100  0.83850000  0.11000000
C        C    0.14490000  0.71890000  0.83850000  0.11000000
C        C    0.13610000  0.21560000  0.35660000 -0.27400000
C        C    0.63610000  0.71560000  0.35660000 -0.27400000
C        C    0.63610000  0.21560000  0.85660000 -0.27400000
C        C    0.13610000  0.71560000  0.85660000 -0.27400000
C        C    0.12980100  0.19710000  0.36160000  0.11000000
C        C    0.62980000  0.69710100  0.36160000  0.11000000
C        C    0.62980000  0.19710000  0.86160100  0.11000000
C        C    0.12980100  0.69710100  0.86160100  0.11000000
C        C    0.13010000  0.18250000  0.34780000 -0.27400000
C        C    0.63010000  0.68249900  0.34780000 -0.27400000
C        C    0.63010000  0.18250000  0.84780100 -0.27400000
C        C    0.13010000  0.68249900  0.84780100 -0.27400000
C        C    0.13620100  0.18729900  0.32970000  0.11000000
C        C    0.63620000  0.68730000  0.32970000  0.11000000
C        C    0.63620000  0.18729900  0.82970100  0.11000000
C        C    0.13620100  0.68730000  0.82970100  0.11000000
C        C    0.12300000  0.16370100  0.35130000  0.84800000
C        C    0.62299900  0.66370000  0.35130000  0.84800000
C        C    0.62299900  0.16370100  0.85130000  0.84800000
C        C    0.12300000  0.66370000  0.85130000  0.84800000
C        C    0.13920000  0.22830000  0.37150000  0.84800000
C        C    0.63920000  0.72830000  0.37150000  0.84800000
C        C    0.63920000  0.22830000  0.87150000  0.84800000
C        C    0.13920000  0.72830000  0.87150000  0.84800000
C        C    0.16140000  0.20240000  0.31270000  0.84800000
C        C    0.66140000  0.70240000  0.31270000  0.84800000
C        C    0.66140000  0.20240000  0.81270100  0.84800000
C        C    0.16140000  0.70240000  0.81270100  0.84800000
C        C    0.21090000  0.23470000  0.37880000 -0.27400000
C        C    0.71090100  0.73470000  0.37880000 -0.27400000
C        C    0.71090100  0.23470000  0.87880000 -0.27400000
C        C    0.21090000  0.73470000  0.87880000 -0.27400000
C        C    0.20930100  0.23240000  0.35660000  0.11000000
C        C    0.70930000  0.73240000  0.35660000  0.11000000
C        C    0.70930000  0.23240000  0.85660000  0.11000000
C        C    0.20930100  0.73240000  0.85660000  0.11000000
C        C    0.13960000  0.25050000  0.44809900  0.84800000
C        C    0.63960000  0.75050000  0.44809900  0.84800000
C        C    0.63960000  0.25050000  0.94810000  0.84800000
C        C    0.13960000  0.75050000  0.94810000  0.84800000
H        H    0.17943300  0.13210800  0.31800800  0.10000000
H        H    0.67943200  0.63210800  0.31800800  0.10000000
H        H    0.67943200  0.13210800  0.81800900  0.10000000
H        H    0.17943300  0.63210800  0.81800900  0.10000000
H        H    0.23306100  0.14904600  0.33332400  0.10000000
H        H    0.73306100  0.64904500  0.33332400  0.10000000
H        H    0.73306100  0.14904600  0.83332400  0.10000000
H        H    0.23306100  0.64904500  0.83332400  0.10000000
H        H    0.10448400  0.18803200  0.14617600  0.10000000
H        H    0.60448400  0.68803100  0.14617600  0.10000000
H        H    0.60448400  0.18803200  0.64617700  0.10000000
H        H    0.10448400  0.68803100  0.64617700  0.10000000
H        H    0.11328600  0.07219600  0.41776800  0.10000000
H        H    0.61328700  0.57219700  0.41776800  0.10000000
H        H    0.61328700  0.07219600  0.91776900  0.10000000
H        H    0.11328600  0.57219700  0.91776900  0.10000000
H        H    0.12526000  0.05578030  0.37611200  0.10000000
H        H    0.62526100  0.55578000  0.37611200  0.10000000
H        H    0.62526100  0.05578030  0.87611300  0.10000000
H        H    0.12526000  0.55578000  0.87611300  0.10000000
H        H    0.19408200  0.15927000  0.23782800  0.10000000
H        H    0.69408200  0.65927100  0.23782800  0.10000000
H        H    0.69408200  0.15927000  0.73782700  0.10000000
H        H    0.19408200  0.65927100  0.73782700  0.10000000
H        H    0.19914800  0.23992900  0.34916100  0.10000000
H        H    0.69914700  0.73992800  0.34916100  0.10000000
H        H    0.69914700  0.23992900  0.84916000  0.10000000
H        H    0.19914800  0.73992800  0.84916000  0.10000000
Cr       Cr   0.95340000  0.22740100  0.05479960  1.62000000
Cr       Cr   0.45339900  0.72740000  0.05479960  1.62000000
Cr       Cr   0.45339900  0.22740100  0.55480000  1.62000000
Cr       Cr   0.95340000  0.72740000  0.55480000  1.62000000
Cr       Cr   0.84000000  0.13030000  0.01359980  1.85900000
Cr       Cr   0.33999900  0.63030100  0.01359980  1.85900000
Cr       Cr   0.33999900  0.13030000  0.51360000  1.85900000
Cr       Cr   0.84000000  0.63030100  0.51360000  1.85900000
O        O    0.04370030  0.18290100  0.09570030 -0.73100000
O        O    0.54370000  0.68290000  0.09570030 -0.73100000
O        O    0.54370000  0.18290100  0.59570000 -0.73100000
O        O    0.04370030  0.68290000  0.59570000 -0.73100000
O        O    0.06500040  0.16440000  0.11530000 -0.73100000
O        O    0.56500000  0.66439900  0.11530000 -0.73100000
O        O    0.56500000  0.16440000  0.61530000 -0.73100000
O        O    0.06500040  0.66439900  0.61530000 -0.73100000
O        O    0.91149900  0.12350100  0.09829960 -0.73100000
O        O    0.41150000  0.62350000  0.09829960 -0.73100000
O        O    0.41150000  0.12350100  0.59830000 -0.73100000
O        O    0.91149900  0.62350000  0.59830000 -0.73100000
O        O    0.84870000  0.10010100  0.12840000 -0.73100000
O        O    0.34870000  0.60010000  0.12840000 -0.73100000
O        O    0.34870000  0.10010100  0.62839900 -0.73100000
O        O    0.84870000  0.60010000  0.62839900 -0.73100000
O        O    0.88389900  0.11540000  0.09040030 -0.73100000
O        O    0.38390000  0.61540000  0.09040030 -0.73100000
O        O    0.38390000  0.11540000  0.59040000 -0.73100000
O        O    0.88389900  0.61540000  0.59040000 -0.73100000
O        O    0.98230000  0.19910000  0.07640010 -0.73100000
O        O    0.48230000  0.69910000  0.07640010 -0.73100000
O        O    0.48230000  0.19910000  0.57639900 -0.73100000
O        O    0.98230000  0.69910000  0.57639900 -0.73100000
O        O    0.94810000  0.16090000  0.06139990 -0.73100000
O        O    0.44809900  0.66090000  0.06139990 -0.73100000
O        O    0.44809900  0.16090000  0.56140100 -0.73100000
O        O    0.94810000  0.66090000  0.56140100 -0.73100000
O        O    0.97340000  0.22800000  0.07240040 -0.58700000
O        O    0.47340100  0.72800100  0.07240040 -0.58700000
O        O    0.47340100  0.22800000  0.57240000 -0.58700000
O        O    0.97340000  0.72800100  0.57240000 -0.58700000
O        O    0.51210000  0.21579900  0.47230100 -0.73100000
O        O    0.01210060  0.71580000  0.47230100 -0.73100000
O        O    0.01210060  0.21579900  0.97230000 -0.73100000
O        O    0.51210000  0.71580000  0.97230000 -0.73100000
O        O    0.93020000  0.22530100  0.04619940 -0.58700000
O        O    0.43020000  0.72530000  0.04619940 -0.58700000
O        O    0.43020000  0.22530100  0.54620000 -0.58700000
O        O    0.93020000  0.72530000  0.54620000 -0.58700000
O        O    0.94050000  0.17390000  0.03469960 -0.73100000
O        O    0.44050100  0.67390100  0.03469960 -0.73100000
O        O    0.44050100  0.17390000  0.53470000 -0.73100000
O        O    0.94050000  0.67390100  0.53470000 -0.73100000
O        O    0.30330000  0.15840100  0.49870000 -0.73100000
O        O    0.80330100  0.65840000  0.49870000 -0.73100000
O        O    0.80330100  0.15840100  0.99870000 -0.73100000
O        O    0.30330000  0.65840000  0.99870000 -0.73100000
O        O    0.82029900  0.02739980  0.16980000 -0.73100000
O        O    0.32030000  0.52740000  0.16980000 -0.73100000
O        O    0.32030000  0.02739980  0.66979900 -0.73100000
O        O    0.82029900  0.52740000  0.66979900 -0.73100000
O        O    0.81340000  0.13120000  0.00990046 -0.73100000
O        O    0.31339900  0.63120000  0.00990046 -0.73100000
O        O    0.31339900  0.13120000  0.50990000 -0.73100000
O        O    0.81340000  0.63120000  0.50990000 -0.73100000
O        O    0.82920000  0.03820000  0.14070000 -0.73100000
O        O    0.32920100  0.53819900  0.14070000 -0.73100000
O        O    0.32920100  0.03820000  0.64070000 -0.73100000
O        O    0.82920000  0.53819900  0.64070000 -0.73100000
O        O    0.86340000  0.13160000  0.02499940 -0.73100000
O        O    0.36340000  0.63159900  0.02499940 -0.73100000
O        O    0.36340000  0.13160000  0.52500000 -0.73100000
O        O    0.86340000  0.63159900  0.52500000 -0.73100000
O        O    0.88160000  0.14850000  0.00680057 -0.58700000
O        O    0.38160000  0.64849900  0.00680057 -0.58700000
O        O    0.38160000  0.14850000  0.50680000 -0.58700000
O        O    0.88160000  0.64849900  0.50680000 -0.58700000
F        F    0.94830000  0.25140000  0.06520070 -0.56600000
F        F    0.44830000  0.75139900  0.06520070 -0.56600000
F        F    0.44830000  0.25140000  0.56520000 -0.56600000
F        F    0.94830000  0.75139900  0.56520000 -0.56600000
C        C    0.83170000  0.07499960  0.15110100  0.11000000
C        C    0.33170000  0.57500000  0.15110100  0.11000000
C        C    0.33170000  0.07499960  0.65110000  0.11000000
C        C    0.83170000  0.57500000  0.65110000  0.11000000
C        C    0.82090000  0.06160010  0.16440000 -0.27400000
C        C    0.32089900  0.56159900  0.16440000 -0.27400000
C        C    0.32089900  0.06160010  0.66439900 -0.27400000
C        C    0.82090000  0.56159900  0.66439900 -0.27400000
C        C    0.82210000  0.04150020  0.15770000  0.84800000
C        C    0.32210000  0.54149900  0.15770000  0.84800000
C        C    0.32210000  0.04150020  0.65770000  0.84800000
C        C    0.82210000  0.54149900  0.65770000  0.84800000
C        C    0.01610030  0.20920000  0.08999980  0.11000000
C        C    0.51610000  0.70920000  0.08999980  0.11000000
C        C    0.51610000  0.20920000  0.59000100  0.11000000
C        C    0.01610030  0.70920000  0.59000100  0.11000000
C        C    0.00260062  0.22250000  0.08659950 -0.27400000
C        C    0.50260000  0.72250000  0.08659950 -0.27400000
C        C    0.50260000  0.22250000  0.58660000 -0.27400000
C        C    0.00260062  0.72250000  0.58660000 -0.27400000
C        C    0.98630000  0.21620000  0.07760020  0.84800000
C        C    0.48629900  0.71620100  0.07760020  0.84800000
C        C    0.48629900  0.21620000  0.57760000  0.84800000
C        C    0.98630000  0.71620100  0.57760000  0.84800000
C        C    0.92260000  0.14810000  0.04690030 -0.27400000
C        C    0.42259900  0.64810000  0.04690030 -0.27400000
C        C    0.42259900  0.14810000  0.54690000 -0.27400000
C        C    0.92260000  0.64810000  0.54690000 -0.27400000
C        C    0.91149900  0.14490000  0.03110040  0.11000000
C        C    0.41150000  0.64490000  0.03110040  0.11000000
C        C    0.41150000  0.14490000  0.53110000  0.11000000
C        C    0.91149900  0.64490000  0.53110000  0.11000000
C        C    0.89340100  0.13610000  0.03440060 -0.27400000
C        C    0.39340000  0.63610000  0.03440060 -0.27400000
C        C    0.39340000  0.13610000  0.53440000 -0.27400000
C        C    0.89340100  0.63610000  0.53440000 -0.27400000
C        C    0.88840000  0.12980100  0.05289980  0.11000000
C        C    0.38840000  0.62980000  0.05289980  0.11000000
C        C    0.38840000  0.12980100  0.55290100  0.11000000
C        C    0.88840000  0.62980000  0.55290100  0.11000000
C        C    0.90220000  0.13010000  0.06749950 -0.27400000
C        C    0.40220000  0.63010000  0.06749950 -0.27400000
C        C    0.40220000  0.13010000  0.56750000 -0.27400000
C        C    0.90220000  0.63010000  0.56750000 -0.27400000
C        C    0.92030000  0.13620100  0.06270020  0.11000000
C        C    0.42030000  0.63620000  0.06270020  0.11000000
C        C    0.42030000  0.13620100  0.56269900  0.11000000
C        C    0.92030000  0.63620000  0.56269900  0.11000000
C        C    0.89870100  0.12300000  0.08630050  0.84800000
C        C    0.39870000  0.62299900  0.08630050  0.84800000
C        C    0.39870000  0.12300000  0.58630000  0.84800000
C        C    0.89870100  0.62299900  0.58630000  0.84800000
C        C    0.87850100  0.13920000  0.02170060  0.84800000
C        C    0.37850000  0.63920000  0.02170060  0.84800000
C        C    0.37850000  0.13920000  0.52170000  0.84800000
C        C    0.87850100  0.63920000  0.52170000  0.84800000
C        C    0.93730000  0.16140000  0.04759980  0.84800000
C        C    0.43730100  0.66140000  0.04759980  0.84800000
C        C    0.43730100  0.16140000  0.54760100  0.84800000
C        C    0.93730000  0.66140000  0.54760100  0.84800000
C        C    0.87119900  0.21090000  0.01530060 -0.27400000
C        C    0.37120000  0.71090100  0.01530060 -0.27400000
C        C    0.37120000  0.21090000  0.51530000 -0.27400000
C        C    0.87119900  0.71090100  0.51530000 -0.27400000
C        C    0.89340100  0.20930100  0.01759940  0.11000000
C        C    0.39340000  0.70930000  0.01759940  0.11000000
C        C    0.39340000  0.20930100  0.51760000  0.11000000
C        C    0.89340100  0.70930000  0.51760000  0.11000000
C        C    0.30190000  0.13960000  0.49950000  0.84800000
C        C    0.80190000  0.63960000  0.49950000  0.84800000
C        C    0.80190000  0.13960000  0.99949900  0.84800000
C        C    0.30190000  0.63960000  0.99949900  0.84800000
H        H    0.93199200  0.17943300  0.11789200  0.10000000
H        H    0.43199100  0.67943200  0.11789200  0.10000000
H        H    0.43199100  0.17943300  0.61789300  0.10000000
H        H    0.93199200  0.67943200  0.61789300  0.10000000
H        H    0.91667600  0.23306100  0.10095500  0.10000000
H        H    0.41667500  0.73306100  0.10095500  0.10000000
H        H    0.41667500  0.23306100  0.60095400  0.10000000
H        H    0.91667600  0.73306100  0.60095400  0.10000000
H        H    0.10382300  0.10448400  0.06196770  0.10000000
H        H    0.60382400  0.60448400  0.06196770  0.10000000
H        H    0.60382400  0.10448400  0.56196800  0.10000000
H        H    0.10382300  0.60448400  0.56196800  0.10000000
H        H    0.83223100  0.11328600  0.17780400  0.10000000
H        H    0.33223200  0.61328700  0.17780400  0.10000000
H        H    0.33223200  0.11328600  0.67780400  0.10000000
H        H    0.83223100  0.61328700  0.67780400  0.10000000
H        H    0.80481200  0.06001040  0.18962300  0.10000000
H        H    0.30481300  0.56001100  0.18962300  0.10000000
H        H    0.30481300  0.06001040  0.68962400  0.10000000
H        H    0.80481200  0.56001100  0.68962400  0.10000000
H        H    0.87388800  0.12526000  0.19422100  0.10000000
H        H    0.37388800  0.62526100  0.19422100  0.10000000
H        H    0.37388800  0.12526000  0.69422000  0.10000000
H        H    0.87388800  0.62526100  0.69422000  0.10000000
H        H    0.01217330  0.19408200  0.09072950  0.10000000
H        H    0.51217300  0.69408200  0.09072950  0.10000000
H        H    0.51217300  0.19408200  0.59073000  0.10000000
H        H    0.01217330  0.69408200  0.59073000  0.10000000
H        H    0.90083900  0.19914800  0.01007190  0.10000000
H        H    0.40084000  0.69914700  0.01007190  0.10000000
H        H    0.40084000  0.19914800  0.51007100  0.10000000
H        H    0.90083900  0.69914700  0.51007100  0.10000000
Cr       Cr   0.95340000  0.02260040  0.19520000  1.85900000
Cr       Cr   0.45339900  0.52260000  0.19520000  1.85900000
Cr       Cr   0.45339900  0.02260040  0.69519900  1.85900000
Cr       Cr   0.95340000  0.52260000  0.69519900  1.85900000
Cr       Cr   0.84000000  0.11970000  0.23640000  1.85900000
Cr       Cr   0.33999900  0.61970100  0.23640000  1.85900000
Cr       Cr   0.33999900  0.11970000  0.73640100  1.85900000
Cr       Cr   0.84000000  0.61970100  0.73640100  1.85900000
O        O    0.04370030  0.06710040  0.15429900 -0.73100000
O        O    0.54370000  0.56710000  0.15429900 -0.73100000
O        O    0.54370000  0.06710040  0.65430000 -0.73100000
O        O    0.04370030  0.56710000  0.65430000 -0.73100000
O        O    0.06500040  0.08559960  0.13470000 -0.73100000
O        O    0.56500000  0.58560000  0.13470000 -0.73100000
O        O    0.56500000  0.08559960  0.63469900 -0.73100000
O        O    0.06500040  0.58560000  0.63469900 -0.73100000
O        O    0.91149900  0.12650000  0.15170000 -0.73100000
O        O    0.41150000  0.62650000  0.15170000 -0.73100000
O        O    0.41150000  0.12650000  0.65169900 -0.73100000
O        O    0.91149900  0.62650000  0.65169900 -0.73100000
O        O    0.84870000  0.14990000  0.12160000 -0.58700000
O        O    0.34870000  0.64990000  0.12160000 -0.58700000
O        O    0.34870000  0.14990000  0.62160000 -0.58700000
O        O    0.84870000  0.64990000  0.62160000 -0.58700000
O        O    0.88389900  0.13460000  0.15959900 -0.58700000
O        O    0.38390000  0.63460100  0.15959900 -0.58700000
O        O    0.38390000  0.13460000  0.65960000 -0.58700000
O        O    0.88389900  0.63460100  0.65960000 -0.58700000
O        O    0.98230000  0.05090000  0.17360000 -0.58700000
O        O    0.48230000  0.55089900  0.17360000 -0.58700000
O        O    0.48230000  0.05090000  0.67360000 -0.58700000
O        O    0.98230000  0.55089900  0.67360000 -0.58700000
O        O    0.94810000  0.08910000  0.18860000 -0.58700000
O        O    0.44809900  0.58909900  0.18860000 -0.58700000
O        O    0.44809900  0.08910000  0.68860000 -0.58700000
O        O    0.94810000  0.58909900  0.68860000 -0.58700000
O        O    0.97340000  0.02199970  0.17760100 -0.73100000
O        O    0.47340100  0.52200000  0.17760100 -0.73100000
O        O    0.47340100  0.02199970  0.67760000 -0.73100000
O        O    0.97340000  0.52200000  0.67760000 -0.73100000
O        O    0.01210060  0.03420030  0.27770000 -0.73100000
O        O    0.51210000  0.53420000  0.27770000 -0.73100000
O        O    0.51210000  0.03420030  0.77770100 -0.73100000
O        O    0.01210060  0.53420000  0.77770100 -0.73100000
O        O    0.93020000  0.02470040  0.20380000 -0.73100000
O        O    0.43020000  0.52470000  0.20380000 -0.73100000
O        O    0.43020000  0.02470040  0.70380000 -0.73100000
O        O    0.93020000  0.52470000  0.70380000 -0.73100000
O        O    0.94050000  0.07609970  0.21530000 -0.73100000
O        O    0.44050100  0.57610000  0.21530000 -0.73100000
O        O    0.44050100  0.07609970  0.71529900 -0.73100000
O        O    0.94050000  0.57610000  0.71529900 -0.73100000
O        O    0.80330100  0.09160050  0.25130000 -0.58700000
O        O    0.30330000  0.59160000  0.25130000 -0.58700000
O        O    0.30330000  0.09160050  0.75130100 -0.58700000
O        O    0.80330100  0.59160000  0.75130100 -0.58700000
O        O    0.82029900  0.22260000  0.08019950 -0.58700000
O        O    0.32030000  0.72260100  0.08019950 -0.58700000
O        O    0.32030000  0.22260000  0.58020000 -0.58700000
O        O    0.82029900  0.72260100  0.58020000 -0.58700000
O        O    0.81340000  0.11880000  0.24010100 -0.73100000
O        O    0.31339900  0.61879900  0.24010100 -0.73100000
O        O    0.31339900  0.11880000  0.74010000 -0.73100000
O        O    0.81340000  0.61879900  0.74010000 -0.73100000
O        O    0.82920000  0.21180000  0.10930000 -0.73100000
O        O    0.32920100  0.71180000  0.10930000 -0.73100000
O        O    0.32920100  0.21180000  0.60929900 -0.73100000
O        O    0.82920000  0.71180000  0.60929900 -0.73100000
O        O    0.86340000  0.11840000  0.22500000 -0.73100000
O        O    0.36340000  0.61840000  0.22500000 -0.73100000
O        O    0.36340000  0.11840000  0.72500000 -0.73100000
O        O    0.86340000  0.61840000  0.72500000 -0.73100000
O        O    0.88160000  0.10150000  0.24320000 -0.73100000
O        O    0.38160000  0.60150000  0.24320000 -0.73100000
O        O    0.38160000  0.10150000  0.74320000 -0.73100000
O        O    0.88160000  0.60150000  0.74320000 -0.73100000
C        C    0.83170000  0.17500000  0.09890040  0.11000000
C        C    0.33170000  0.67499900  0.09890040  0.11000000
C        C    0.33170000  0.17500000  0.59890000  0.11000000
C        C    0.83170000  0.67499900  0.59890000  0.11000000
C        C    0.82090000  0.18840000  0.08559960 -0.27400000
C        C    0.32089900  0.68840000  0.08559960 -0.27400000
C        C    0.32089900  0.18840000  0.58560000 -0.27400000
C        C    0.82090000  0.68840000  0.58560000 -0.27400000
C        C    0.82210000  0.20849900  0.09230010  0.84800000
C        C    0.32210000  0.70850000  0.09230010  0.84800000
C        C    0.32210000  0.20849900  0.59229900  0.84800000
C        C    0.82210000  0.70850000  0.59229900  0.84800000
C        C    0.01610030  0.04080070  0.16000000  0.11000000
C        C    0.51610000  0.54080000  0.16000000  0.11000000
C        C    0.51610000  0.04080070  0.66000100  0.11000000
C        C    0.01610030  0.54080000  0.66000100  0.11000000
C        C    0.00260062  0.02749990  0.16340000 -0.27400000
C        C    0.50260000  0.52750100  0.16340000 -0.27400000
C        C    0.50260000  0.02749990  0.66339900 -0.27400000
C        C    0.00260062  0.52750100  0.66339900 -0.27400000
C        C    0.98630000  0.03379980  0.17239900  0.84800000
C        C    0.48629900  0.53380100  0.17239900  0.84800000
C        C    0.48629900  0.03379980  0.67240000  0.84800000
C        C    0.98630000  0.53380100  0.67240000  0.84800000
C        C    0.92260000  0.10190000  0.20309900 -0.27400000
C        C    0.42259900  0.60189900  0.20309900 -0.27400000
C        C    0.42259900  0.10190000  0.70310000 -0.27400000
C        C    0.92260000  0.60189900  0.70310000 -0.27400000
C        C    0.91149900  0.10510000  0.21890100  0.11000000
C        C    0.41150000  0.60509900  0.21890100  0.11000000
C        C    0.41150000  0.10510000  0.71890000  0.11000000
C        C    0.91149900  0.60509900  0.71890000  0.11000000
C        C    0.89340100  0.11390100  0.21560000 -0.27400000
C        C    0.39340000  0.61390000  0.21560000 -0.27400000
C        C    0.39340000  0.11390100  0.71560000 -0.27400000
C        C    0.89340100  0.61390000  0.71560000 -0.27400000
C        C    0.88840000  0.12020000  0.19710000  0.11000000
C        C    0.38840000  0.62020000  0.19710000  0.11000000
C        C    0.38840000  0.12020000  0.69710100  0.11000000
C        C    0.88840000  0.62020000  0.69710100  0.11000000
C        C    0.90220000  0.11990000  0.18250000 -0.27400000
C        C    0.40220000  0.61989900  0.18250000 -0.27400000
C        C    0.40220000  0.11990000  0.68249900 -0.27400000
C        C    0.90220000  0.61989900  0.68249900 -0.27400000
C        C    0.92030000  0.11380000  0.18729900  0.11000000
C        C    0.42030000  0.61380000  0.18729900  0.11000000
C        C    0.42030000  0.11380000  0.68730000  0.11000000
C        C    0.92030000  0.61380000  0.68730000  0.11000000
C        C    0.89870100  0.12700000  0.16370100  0.84800000
C        C    0.39870000  0.62700000  0.16370100  0.84800000
C        C    0.39870000  0.12700000  0.66370000  0.84800000
C        C    0.89870100  0.62700000  0.66370000  0.84800000
C        C    0.87850100  0.11080100  0.22830000  0.84800000
C        C    0.37850000  0.61080000  0.22830000  0.84800000
C        C    0.37850000  0.11080100  0.72830000  0.84800000
C        C    0.87850100  0.61080000  0.72830000  0.84800000
C        C    0.93730000  0.08859940  0.20240000  0.84800000
C        C    0.43730100  0.58860000  0.20240000  0.84800000
C        C    0.43730100  0.08859940  0.70240000  0.84800000
C        C    0.93730000  0.58860000  0.70240000  0.84800000
C        C    0.87119900  0.03909980  0.23470000 -0.27400000
C        C    0.37120000  0.53910100  0.23470000 -0.27400000
C        C    0.37120000  0.03909980  0.73470000 -0.27400000
C        C    0.87119900  0.53910100  0.73470000 -0.27400000
C        C    0.89340100  0.04070050  0.23240000  0.11000000
C        C    0.39340000  0.54070000  0.23240000  0.11000000
C        C    0.39340000  0.04070050  0.73240000  0.11000000
C        C    0.89340100  0.54070000  0.73240000  0.11000000
C        C    0.80190000  0.11040000  0.25050000  0.84800000
C        C    0.30190000  0.61039900  0.25050000  0.84800000
C        C    0.30190000  0.11040000  0.75050000  0.84800000
C        C    0.80190000  0.61039900  0.75050000  0.84800000
H        H    0.93199200  0.07056650  0.13210800  0.10000000
H        H    0.43199100  0.57056700  0.13210800  0.10000000
H        H    0.43199100  0.07056650  0.63210800  0.10000000
H        H    0.93199200  0.57056700  0.63210800  0.10000000
H        H    0.91667600  0.01693970  0.14904600  0.10000000
H        H    0.41667500  0.51693900  0.14904600  0.10000000
H        H    0.41667500  0.01693970  0.64904500  0.10000000
H        H    0.91667600  0.51693900  0.64904500  0.10000000
H        H    0.83223100  0.13671400  0.07219600  0.10000000
H        H    0.33223200  0.63671400  0.07219600  0.10000000
H        H    0.33223200  0.13671400  0.57219700  0.10000000
H        H    0.83223100  0.63671400  0.57219700  0.10000000
H        H    0.80481200  0.18998900  0.06037660  0.10000000
H        H    0.30481300  0.68998900  0.06037660  0.10000000
H        H    0.30481300  0.18998900  0.56037600  0.10000000
H        H    0.80481200  0.68998900  0.56037600  0.10000000
H        H    0.87388800  0.12473900  0.05578030  0.10000000
H        H    0.37388800  0.62474000  0.05578030  0.10000000
H        H    0.37388800  0.12473900  0.55578000  0.10000000
H        H    0.87388800  0.62474000  0.55578000  0.10000000
H        H    0.01217330  0.05591740  0.15927000  0.10000000
H        H    0.51217300  0.55591800  0.15927000  0.10000000
H        H    0.51217300  0.05591740  0.65927100  0.10000000
H        H    0.01217330  0.55591800  0.65927100  0.10000000
H        H    0.90083900  0.05085200  0.23992900  0.10000000
H        H    0.40084000  0.55085300  0.23992900  0.10000000
H        H    0.40084000  0.05085200  0.73992800  0.10000000
H        H    0.90083900  0.55085300  0.73992800  0.10000000
Cr       Cr   0.29660000  0.02260040  0.05479960  1.85900000
Cr       Cr   0.79660000  0.52260000  0.05479960  1.85900000
Cr       Cr   0.79660000  0.02260040  0.55480000  1.85900000
Cr       Cr   0.29660000  0.52260000  0.55480000  1.85900000
Cr       Cr   0.40999900  0.11970000  0.01359980  1.85900000
Cr       Cr   0.91000000  0.61970100  0.01359980  1.85900000
Cr       Cr   0.91000000  0.11970000  0.51360000  1.85900000
Cr       Cr   0.40999900  0.61970100  0.51360000  1.85900000
O        O    0.20629900  0.06710040  0.09570030 -0.73100000
O        O    0.70630000  0.56710000  0.09570030 -0.73100000
O        O    0.70630000  0.06710040  0.59570000 -0.73100000
O        O    0.20629900  0.56710000  0.59570000 -0.73100000
O        O    0.18500100  0.08559960  0.11530000 -0.73100000
O        O    0.68500000  0.58560000  0.11530000 -0.73100000
O        O    0.68500000  0.08559960  0.61530000 -0.73100000
O        O    0.18500100  0.58560000  0.61530000 -0.73100000
O        O    0.33850000  0.12650000  0.09829960 -0.73100000
O        O    0.83850000  0.62650000  0.09829960 -0.73100000
O        O    0.83850000  0.12650000  0.59830000 -0.73100000
O        O    0.33850000  0.62650000  0.59830000 -0.73100000
O        O    0.40130100  0.14990000  0.12840000 -0.58700000
O        O    0.90130000  0.64990000  0.12840000 -0.58700000
O        O    0.90130000  0.14990000  0.62839900 -0.58700000
O        O    0.40130100  0.64990000  0.62839900 -0.58700000
O        O    0.36610000  0.13460000  0.09040030 -0.58700000
O        O    0.86610000  0.63460100  0.09040030 -0.58700000
O        O    0.86610000  0.13460000  0.59040000 -0.58700000
O        O    0.36610000  0.63460100  0.59040000 -0.58700000
O        O    0.26770100  0.05090000  0.07640010 -0.58700000
O        O    0.76770000  0.55089900  0.07640010 -0.58700000
O        O    0.76770000  0.05090000  0.57639900 -0.58700000
O        O    0.26770100  0.55089900  0.57639900 -0.58700000
O        O    0.30190000  0.08910000  0.06139990 -0.58700000
O        O    0.80190000  0.58909900  0.06139990 -0.58700000
O        O    0.80190000  0.08910000  0.56140100 -0.58700000
O        O    0.30190000  0.58909900  0.56140100 -0.58700000
O        O    0.27660000  0.02199970  0.07240040 -0.73100000
O        O    0.77660000  0.52200000  0.07240040 -0.73100000
O        O    0.77660000  0.02199970  0.57240000 -0.73100000
O        O    0.27660000  0.52200000  0.57240000 -0.73100000
O        O    0.73790000  0.03420030  0.47230100 -0.73100000
O        O    0.23790000  0.53420000  0.47230100 -0.73100000
O        O    0.23790000  0.03420030  0.97230000 -0.73100000
O        O    0.73790000  0.53420000  0.97230000 -0.73100000
O        O    0.31979900  0.02470040  0.04619940 -0.73100000
O        O    0.81980000  0.52470000  0.04619940 -0.73100000
O        O    0.81980000  0.02470040  0.54620000 -0.73100000
O        O    0.31979900  0.52470000  0.54620000 -0.73100000
O        O    0.30950000  0.07609970  0.03469960 -0.73100000
O        O    0.80950000  0.57610000  0.03469960 -0.73100000
O        O    0.80950000  0.07609970  0.53470000 -0.73100000
O        O    0.30950000  0.57610000  0.53470000 -0.73100000
O        O    0.94670000  0.09160050  0.49870000 -0.73100000
O        O    0.44670000  0.59160000  0.49870000 -0.73100000
O        O    0.44670000  0.09160050  0.99870000 -0.73100000
O        O    0.94670000  0.59160000  0.99870000 -0.73100000
O        O    0.42970000  0.22260000  0.16980000 -0.73100000
O        O    0.92970000  0.72260100  0.16980000 -0.73100000
O        O    0.92970000  0.22260000  0.66979900 -0.73100000
O        O    0.42970000  0.72260100  0.66979900 -0.73100000
O        O    0.43660000  0.11880000  0.00990046 -0.73100000
O        O    0.93660000  0.61879900  0.00990046 -0.73100000
O        O    0.93660000  0.11880000  0.50990000 -0.73100000
O        O    0.43660000  0.61879900  0.50990000 -0.73100000
O        O    0.42080000  0.21180000  0.14070000 -0.73100000
O        O    0.92080000  0.71180000  0.14070000 -0.73100000
O        O    0.92080000  0.21180000  0.64070000 -0.73100000
O        O    0.42080000  0.71180000  0.64070000 -0.73100000
O        O    0.38659900  0.11840000  0.02499940 -0.73100000
O        O    0.88660000  0.61840000  0.02499940 -0.73100000
O        O    0.88660000  0.11840000  0.52500000 -0.73100000
O        O    0.38659900  0.61840000  0.52500000 -0.73100000
O        O    0.36840100  0.10150000  0.00680057 -0.58700000
O        O    0.86840000  0.60150000  0.00680057 -0.58700000
O        O    0.86840000  0.10150000  0.50680000 -0.58700000
O        O    0.36840100  0.60150000  0.50680000 -0.58700000
C        C    0.41830100  0.17500000  0.15110100  0.11000000
C        C    0.91830000  0.67499900  0.15110100  0.11000000
C        C    0.91830000  0.17500000  0.65110000  0.11000000
C        C    0.41830100  0.67499900  0.65110000  0.11000000
C        C    0.42910000  0.18840000  0.16440000 -0.27400000
C        C    0.92910000  0.68840000  0.16440000 -0.27400000
C        C    0.92910000  0.18840000  0.66439900 -0.27400000
C        C    0.42910000  0.68840000  0.66439900 -0.27400000
C        C    0.42790100  0.20849900  0.15770000  0.84800000
C        C    0.92790000  0.70850000  0.15770000  0.84800000
C        C    0.92790000  0.20849900  0.65770000  0.84800000
C        C    0.42790100  0.70850000  0.65770000  0.84800000
C        C    0.23389900  0.04080070  0.08999980  0.11000000
C        C    0.73390000  0.54080000  0.08999980  0.11000000
C        C    0.73390000  0.04080070  0.59000100  0.11000000
C        C    0.23389900  0.54080000  0.59000100  0.11000000
C        C    0.24740000  0.02749990  0.08659950 -0.27400000
C        C    0.74740000  0.52750100  0.08659950 -0.27400000
C        C    0.74740000  0.02749990  0.58660000 -0.27400000
C        C    0.24740000  0.52750100  0.58660000 -0.27400000
C        C    0.26370000  0.03379980  0.07760020  0.84800000
C        C    0.76370000  0.53380100  0.07760020  0.84800000
C        C    0.76370000  0.03379980  0.57760000  0.84800000
C        C    0.26370000  0.53380100  0.57760000  0.84800000
C        C    0.32740000  0.10190000  0.04690030 -0.27400000
C        C    0.82740000  0.60189900  0.04690030 -0.27400000
C        C    0.82740000  0.10190000  0.54690000 -0.27400000
C        C    0.32740000  0.60189900  0.54690000 -0.27400000
C        C    0.33850000  0.10510000  0.03110040  0.11000000
C        C    0.83850000  0.60509900  0.03110040  0.11000000
C        C    0.83850000  0.10510000  0.53110000  0.11000000
C        C    0.33850000  0.60509900  0.53110000  0.11000000
C        C    0.35660000  0.11390100  0.03440060 -0.27400000
C        C    0.85660000  0.61390000  0.03440060 -0.27400000
C        C    0.85660000  0.11390100  0.53440000 -0.27400000
C        C    0.35660000  0.61390000  0.53440000 -0.27400000
C        C    0.36160000  0.12020000  0.05289980  0.11000000
C        C    0.86160100  0.62020000  0.05289980  0.11000000
C        C    0.86160100  0.12020000  0.55290100  0.11000000
C        C    0.36160000  0.62020000  0.55290100  0.11000000
C        C    0.34780000  0.11990000  0.06749950 -0.27400000
C        C    0.84780100  0.61989900  0.06749950 -0.27400000
C        C    0.84780100  0.11990000  0.56750000 -0.27400000
C        C    0.34780000  0.61989900  0.56750000 -0.27400000
C        C    0.32970000  0.11380000  0.06270020  0.11000000
C        C    0.82970100  0.61380000  0.06270020  0.11000000
C        C    0.82970100  0.11380000  0.56269900  0.11000000
C        C    0.32970000  0.61380000  0.56269900  0.11000000
C        C    0.35130000  0.12700000  0.08630050  0.84800000
C        C    0.85130000  0.62700000  0.08630050  0.84800000
C        C    0.85130000  0.12700000  0.58630000  0.84800000
C        C    0.35130000  0.62700000  0.58630000  0.84800000
C        C    0.37150000  0.11080100  0.02170060  0.84800000
C        C    0.87150000  0.61080000  0.02170060  0.84800000
C        C    0.87150000  0.11080100  0.52170000  0.84800000
C        C    0.37150000  0.61080000  0.52170000  0.84800000
C        C    0.31270000  0.08859940  0.04759980  0.84800000
C        C    0.81270100  0.58860000  0.04759980  0.84800000
C        C    0.81270100  0.08859940  0.54760100  0.84800000
C        C    0.31270000  0.58860000  0.54760100  0.84800000
C        C    0.37880000  0.03909980  0.01530060 -0.27400000
C        C    0.87880000  0.53910100  0.01530060 -0.27400000
C        C    0.87880000  0.03909980  0.51530000 -0.27400000
C        C    0.37880000  0.53910100  0.51530000 -0.27400000
C        C    0.35660000  0.04070050  0.01759940  0.11000000
C        C    0.85660000  0.54070000  0.01759940  0.11000000
C        C    0.85660000  0.04070050  0.51760000  0.11000000
C        C    0.35660000  0.54070000  0.51760000  0.11000000
C        C    0.94810000  0.11040000  0.49950000  0.84800000
C        C    0.44809900  0.61039900  0.49950000  0.84800000
C        C    0.44809900  0.11040000  0.99949900  0.84800000
C        C    0.94810000  0.61039900  0.99949900  0.84800000
H        H    0.31800800  0.07056650  0.11789200  0.10000000
H        H    0.81800900  0.57056700  0.11789200  0.10000000
H        H    0.81800900  0.07056650  0.61789300  0.10000000
H        H    0.31800800  0.57056700  0.61789300  0.10000000
H        H    0.33332400  0.01693970  0.10095500  0.10000000
H        H    0.83332400  0.51693900  0.10095500  0.10000000
H        H    0.83332400  0.01693970  0.60095400  0.10000000
H        H    0.33332400  0.51693900  0.60095400  0.10000000
H        H    0.41776800  0.13671400  0.17780400  0.10000000
H        H    0.91776900  0.63671400  0.17780400  0.10000000
H        H    0.91776900  0.13671400  0.67780400  0.10000000
H        H    0.41776800  0.63671400  0.67780400  0.10000000
H        H    0.44518700  0.18998900  0.18962300  0.10000000
H        H    0.94518800  0.68998900  0.18962300  0.10000000
H        H    0.94518800  0.18998900  0.68962400  0.10000000
H        H    0.44518700  0.68998900  0.68962400  0.10000000
H        H    0.37611200  0.12473900  0.19422100  0.10000000
H        H    0.87611300  0.62474000  0.19422100  0.10000000
H        H    0.87611300  0.12473900  0.69422000  0.10000000
H        H    0.37611200  0.62474000  0.69422000  0.10000000
H        H    0.23782800  0.05591740  0.09072950  0.10000000
H        H    0.73782700  0.55591800  0.09072950  0.10000000
H        H    0.73782700  0.05591740  0.59073000  0.10000000
H        H    0.23782800  0.55591800  0.59073000  0.10000000
H        H    0.34916100  0.05085200  0.01007190  0.10000000
H        H    0.84916000  0.55085300  0.01007190  0.10000000
H        H    0.84916000  0.05085200  0.51007100  0.10000000
H        H    0.34916100  0.55085300  0.51007100  0.10000000
Cr       Cr   0.29660000  0.22740100  0.19520000  1.85900000
Cr       Cr   0.79660000  0.72740000  0.19520000  1.85900000
Cr       Cr   0.79660000  0.22740100  0.69519900  1.85900000
Cr       Cr   0.29660000  0.72740000  0.69519900  1.85900000
Cr       Cr   0.40999900  0.13030000  0.23640000  1.85900000
Cr       Cr   0.91000000  0.63030100  0.23640000  1.85900000
Cr       Cr   0.91000000  0.13030000  0.73640100  1.85900000
Cr       Cr   0.40999900  0.63030100  0.73640100  1.85900000
O        O    0.20629900  0.18290100  0.15429900 -0.73100000
O        O    0.70630000  0.68290000  0.15429900 -0.73100000
O        O    0.70630000  0.18290100  0.65430000 -0.73100000
O        O    0.20629900  0.68290000  0.65430000 -0.73100000
O        O    0.18500100  0.16440000  0.13470000 -0.73100000
O        O    0.68500000  0.66439900  0.13470000 -0.73100000
O        O    0.68500000  0.16440000  0.63469900 -0.73100000
O        O    0.18500100  0.66439900  0.63469900 -0.73100000
O        O    0.33850000  0.12350100  0.15170000 -0.73100000
O        O    0.83850000  0.62350000  0.15170000 -0.73100000
O        O    0.83850000  0.12350100  0.65169900 -0.73100000
O        O    0.33850000  0.62350000  0.65169900 -0.73100000
O        O    0.40130100  0.10010100  0.12160000 -0.73100000
O        O    0.90130000  0.60010000  0.12160000 -0.73100000
O        O    0.90130000  0.10010100  0.62160000 -0.73100000
O        O    0.40130100  0.60010000  0.62160000 -0.73100000
O        O    0.36610000  0.11540000  0.15959900 -0.73100000
O        O    0.86610000  0.61540000  0.15959900 -0.73100000
O        O    0.86610000  0.11540000  0.65960000 -0.73100000
O        O    0.36610000  0.61540000  0.65960000 -0.73100000
O        O    0.26770100  0.19910000  0.17360000 -0.73100000
O        O    0.76770000  0.69910000  0.17360000 -0.73100000
O        O    0.76770000  0.19910000  0.67360000 -0.73100000
O        O    0.26770100  0.69910000  0.67360000 -0.73100000
O        O    0.30190000  0.16090000  0.18860000 -0.73100000
O        O    0.80190000  0.66090000  0.18860000 -0.73100000
O        O    0.80190000  0.16090000  0.68860000 -0.73100000
O        O    0.30190000  0.66090000  0.68860000 -0.73100000
O        O    0.27660000  0.22800000  0.17760100 -0.73100000
O        O    0.77660000  0.72800100  0.17760100 -0.73100000
O        O    0.77660000  0.22800000  0.67760000 -0.73100000
O        O    0.27660000  0.72800100  0.67760000 -0.73100000
O        O    0.23790000  0.21579900  0.27770000 -0.73100000
O        O    0.73790000  0.71580000  0.27770000 -0.73100000
O        O    0.73790000  0.21579900  0.77770100 -0.73100000
O        O    0.23790000  0.71580000  0.77770100 -0.73100000
O        O    0.31979900  0.22530100  0.20380000 -0.73100000
O        O    0.81980000  0.72530000  0.20380000 -0.73100000
O        O    0.81980000  0.22530100  0.70380000 -0.73100000
O        O    0.31979900  0.72530000  0.70380000 -0.73100000
O        O    0.30950000  0.17390000  0.21530000 -0.58700000
O        O    0.80950000  0.67390100  0.21530000 -0.58700000
O        O    0.80950000  0.17390000  0.71529900 -0.58700000
O        O    0.30950000  0.67390100  0.71529900 -0.58700000
O        O    0.44670000  0.15840100  0.25130000 -0.58700000
O        O    0.94670000  0.65840000  0.25130000 -0.58700000
O        O    0.94670000  0.15840100  0.75130100 -0.58700000
O        O    0.44670000  0.65840000  0.75130100 -0.58700000
O        O    0.42970000  0.02739980  0.08019950 -0.58700000
O        O    0.92970000  0.52740000  0.08019950 -0.58700000
O        O    0.92970000  0.02739980  0.58020000 -0.58700000
O        O    0.42970000  0.52740000  0.58020000 -0.58700000
O        O    0.43660000  0.13120000  0.24010100 -0.73100000
O        O    0.93660000  0.63120000  0.24010100 -0.73100000
O        O    0.93660000  0.13120000  0.74010000 -0.73100000
O        O    0.43660000  0.63120000  0.74010000 -0.73100000
O        O    0.42080000  0.03820000  0.10930000 -0.73100000
O        O    0.92080000  0.53819900  0.10930000 -0.73100000
O        O    0.92080000  0.03820000  0.60929900 -0.73100000
O        O    0.42080000  0.53819900  0.60929900 -0.73100000
O        O    0.38659900  0.13160000  0.22500000 -0.73100000
O        O    0.88660000  0.63159900  0.22500000 -0.73100000
O        O    0.88660000  0.13160000  0.72500000 -0.73100000
O        O    0.38659900  0.63159900  0.72500000 -0.73100000
O        O    0.36840100  0.14850000  0.24320000 -0.73100000
O        O    0.86840000  0.64849900  0.24320000 -0.73100000
O        O    0.86840000  0.14850000  0.74320000 -0.73100000
O        O    0.36840100  0.64849900  0.74320000 -0.73100000
C        C    0.41830100  0.07499960  0.09890040  0.11000000
C        C    0.91830000  0.57500000  0.09890040  0.11000000
C        C    0.91830000  0.07499960  0.59890000  0.11000000
C        C    0.41830100  0.57500000  0.59890000  0.11000000
C        C    0.42910000  0.06160010  0.08559960 -0.27400000
C        C    0.92910000  0.56159900  0.08559960 -0.27400000
C        C    0.92910000  0.06160010  0.58560000 -0.27400000
C        C    0.42910000  0.56159900  0.58560000 -0.27400000
C        C    0.42790100  0.04150020  0.09230010  0.84800000
C        C    0.92790000  0.54149900  0.09230010  0.84800000
C        C    0.92790000  0.04150020  0.59229900  0.84800000
C        C    0.42790100  0.54149900  0.59229900  0.84800000
C        C    0.23389900  0.20920000  0.16000000  0.11000000
C        C    0.73390000  0.70920000  0.16000000  0.11000000
C        C    0.73390000  0.20920000  0.66000100  0.11000000
C        C    0.23389900  0.70920000  0.66000100  0.11000000
C        C    0.24740000  0.22250000  0.16340000 -0.27400000
C        C    0.74740000  0.72250000  0.16340000 -0.27400000
C        C    0.74740000  0.22250000  0.66339900 -0.27400000
C        C    0.24740000  0.72250000  0.66339900 -0.27400000
C        C    0.26370000  0.21620000  0.17239900  0.84800000
C        C    0.76370000  0.71620100  0.17239900  0.84800000
C        C    0.76370000  0.21620000  0.67240000  0.84800000
C        C    0.26370000  0.71620100  0.67240000  0.84800000
C        C    0.32740000  0.14810000  0.20309900 -0.27400000
C        C    0.82740000  0.64810000  0.20309900 -0.27400000
C        C    0.82740000  0.14810000  0.70310000 -0.27400000
C        C    0.32740000  0.64810000  0.70310000 -0.27400000
C        C    0.33850000  0.14490000  0.21890100  0.11000000
C        C    0.83850000  0.64490000  0.21890100  0.11000000
C        C    0.83850000  0.14490000  0.71890000  0.11000000
C        C    0.33850000  0.64490000  0.71890000  0.11000000
C        C    0.35660000  0.13610000  0.21560000 -0.27400000
C        C    0.85660000  0.63610000  0.21560000 -0.27400000
C        C    0.85660000  0.13610000  0.71560000 -0.27400000
C        C    0.35660000  0.63610000  0.71560000 -0.27400000
C        C    0.36160000  0.12980100  0.19710000  0.11000000
C        C    0.86160100  0.62980000  0.19710000  0.11000000
C        C    0.86160100  0.12980100  0.69710100  0.11000000
C        C    0.36160000  0.62980000  0.69710100  0.11000000
C        C    0.34780000  0.13010000  0.18250000 -0.27400000
C        C    0.84780100  0.63010000  0.18250000 -0.27400000
C        C    0.84780100  0.13010000  0.68249900 -0.27400000
C        C    0.34780000  0.63010000  0.68249900 -0.27400000
C        C    0.32970000  0.13620100  0.18729900  0.11000000
C        C    0.82970100  0.63620000  0.18729900  0.11000000
C        C    0.82970100  0.13620100  0.68730000  0.11000000
C        C    0.32970000  0.63620000  0.68730000  0.11000000
C        C    0.35130000  0.12300000  0.16370100  0.84800000
C        C    0.85130000  0.62299900  0.16370100  0.84800000
C        C    0.85130000  0.12300000  0.66370000  0.84800000
C        C    0.35130000  0.62299900  0.66370000  0.84800000
C        C    0.37150000  0.13920000  0.22830000  0.84800000
C        C    0.87150000  0.63920000  0.22830000  0.84800000
C        C    0.87150000  0.13920000  0.72830000  0.84800000
C        C    0.37150000  0.63920000  0.72830000  0.84800000
C        C    0.31270000  0.16140000  0.20240000  0.84800000
C        C    0.81270100  0.66140000  0.20240000  0.84800000
C        C    0.81270100  0.16140000  0.70240000  0.84800000
C        C    0.31270000  0.66140000  0.70240000  0.84800000
C        C    0.37880000  0.21090000  0.23470000 -0.27400000
C        C    0.87880000  0.71090100  0.23470000 -0.27400000
C        C    0.87880000  0.21090000  0.73470000 -0.27400000
C        C    0.37880000  0.71090100  0.73470000 -0.27400000
C        C    0.35660000  0.20930100  0.23240000  0.11000000
C        C    0.85660000  0.70930000  0.23240000  0.11000000
C        C    0.85660000  0.20930100  0.73240000  0.11000000
C        C    0.35660000  0.70930000  0.73240000  0.11000000
C        C    0.44809900  0.13960000  0.25050000  0.84800000
C        C    0.94810000  0.63960000  0.25050000  0.84800000
C        C    0.94810000  0.13960000  0.75050000  0.84800000
C        C    0.44809900  0.63960000  0.75050000  0.84800000
H        H    0.31800800  0.17943300  0.13210800  0.10000000
H        H    0.81800900  0.67943200  0.13210800  0.10000000
H        H    0.81800900  0.17943300  0.63210800  0.10000000
H        H    0.31800800  0.67943200  0.63210800  0.10000000
H        H    0.33332400  0.23306100  0.14904600  0.10000000
H        H    0.83332400  0.73306100  0.14904600  0.10000000
H        H    0.83332400  0.23306100  0.64904500  0.10000000
H        H    0.33332400  0.73306100  0.64904500  0.10000000
H        H    0.14617600  0.10448400  0.18803200  0.10000000
H        H    0.64617700  0.60448400  0.18803200  0.10000000
H        H    0.64617700  0.10448400  0.68803100  0.10000000
H        H    0.14617600  0.60448400  0.68803100  0.10000000
H        H    0.41776800  0.11328600  0.07219600  0.10000000
H        H    0.91776900  0.61328700  0.07219600  0.10000000
H        H    0.91776900  0.11328600  0.57219700  0.10000000
H        H    0.41776800  0.61328700  0.57219700  0.10000000
H        H    0.37611200  0.12526000  0.05578030  0.10000000
H        H    0.87611300  0.62526100  0.05578030  0.10000000
H        H    0.87611300  0.12526000  0.55578000  0.10000000
H        H    0.37611200  0.62526100  0.55578000  0.10000000
H        H    0.23782800  0.19408200  0.15927000  0.10000000
H        H    0.73782700  0.69408200  0.15927000  0.10000000
H        H    0.73782700  0.19408200  0.65927100  0.10000000
H        H    0.23782800  0.69408200  0.65927100  0.10000000
H        H    0.34916100  0.19914800  0.23992900  0.10000000
H        H    0.84916000  0.69914700  0.23992900  0.10000000
H        H    0.84916000  0.19914800  0.73992800  0.10000000
H        H    0.34916100  0.69914700  0.73992800  0.10000000
Cr       Cr   0.55480000  0.45339900  0.22740100  1.62000000
Cr       Cr   0.05479960  0.95340000  0.22740100  1.62000000
Cr       Cr   0.05479960  0.45339900  0.72740000  1.62000000
Cr       Cr   0.55480000  0.95340000  0.72740000  1.62000000
Cr       Cr   0.51360000  0.33999900  0.13030000  1.85900000
Cr       Cr   0.01359980  0.84000000  0.13030000  1.85900000
Cr       Cr   0.01359980  0.33999900  0.63030100  1.85900000
Cr       Cr   0.51360000  0.84000000  0.63030100  1.85900000
O        O    0.09570030  0.04370030  0.18290100 -0.58700000
O        O    0.59570000  0.54370000  0.18290100 -0.58700000
O        O    0.59570000  0.04370030  0.68290000 -0.58700000
O        O    0.09570030  0.54370000  0.68290000 -0.58700000
O        O    0.11530000  0.06500040  0.16440000 -0.58700000
O        O    0.61530000  0.56500000  0.16440000 -0.58700000
O        O    0.61530000  0.06500040  0.66439900 -0.58700000
O        O    0.11530000  0.56500000  0.66439900 -0.58700000
O        O    0.59830000  0.41150000  0.12350100 -0.73100000
O        O    0.09829960  0.91149900  0.12350100 -0.73100000
O        O    0.09829960  0.41150000  0.62350000 -0.73100000
O        O    0.59830000  0.91149900  0.62350000 -0.73100000
O        O    0.62839900  0.34870000  0.10010100 -0.58700000
O        O    0.12840000  0.84870000  0.10010100 -0.58700000
O        O    0.12840000  0.34870000  0.60010000 -0.58700000
O        O    0.62839900  0.84870000  0.60010000 -0.58700000
O        O    0.59040000  0.38390000  0.11540000 -0.58700000
O        O    0.09040030  0.88389900  0.11540000 -0.58700000
O        O    0.09040030  0.38390000  0.61540000 -0.58700000
O        O    0.59040000  0.88389900  0.61540000 -0.58700000
O        O    0.57639900  0.48230000  0.19910000 -0.73100000
O        O    0.07640010  0.98230000  0.19910000 -0.73100000
O        O    0.07640010  0.48230000  0.69910000 -0.73100000
O        O    0.57639900  0.98230000  0.69910000 -0.73100000
O        O    0.56140100  0.44809900  0.16090000 -0.73100000
O        O    0.06139990  0.94810000  0.16090000 -0.73100000
O        O    0.06139990  0.44809900  0.66090000 -0.73100000
O        O    0.56140100  0.94810000  0.66090000 -0.73100000
O        O    0.57240000  0.47340100  0.22800000 -0.58700000
O        O    0.07240040  0.97340000  0.22800000 -0.58700000
O        O    0.07240040  0.47340100  0.72800100 -0.58700000
O        O    0.57240000  0.97340000  0.72800100 -0.58700000
O        O    0.97230000  0.01210060  0.21579900 -0.73100000
O        O    0.47230100  0.51210000  0.21579900 -0.73100000
O        O    0.47230100  0.01210060  0.71580000 -0.73100000
O        O    0.97230000  0.51210000  0.71580000 -0.73100000
O        O    0.54620000  0.43020000  0.22530100 -0.58700000
O        O    0.04619940  0.93020000  0.22530100 -0.58700000
O        O    0.04619940  0.43020000  0.72530000 -0.58700000
O        O    0.54620000  0.93020000  0.72530000 -0.58700000
O        O    0.53470000  0.44050100  0.17390000 -0.73100000
O        O    0.03469960  0.94050000  0.17390000 -0.73100000
O        O    0.03469960  0.44050100  0.67390100 -0.73100000
O        O    0.53470000  0.94050000  0.67390100 -0.73100000
O        O    0.49870000  0.30330000  0.15840100 -0.58700000
O        O    0.99870000  0.80330100  0.15840100 -0.58700000
O        O    0.99870000  0.30330000  0.65840000 -0.58700000
O        O    0.49870000  0.80330100  0.65840000 -0.58700000
O        O    0.66979900  0.32030000  0.02739980 -0.58700000
O        O    0.16980000  0.82029900  0.02739980 -0.58700000
O        O    0.16980000  0.32030000  0.52740000 -0.58700000
O        O    0.66979900  0.82029900  0.52740000 -0.58700000
O        O    0.50990000  0.31339900  0.13120000 -0.73100000
O        O    0.00990046  0.81340000  0.13120000 -0.73100000
O        O    0.00990046  0.31339900  0.63120000 -0.73100000
O        O    0.50990000  0.81340000  0.63120000 -0.73100000
O        O    0.64070000  0.32920100  0.03820000 -0.73100000
O        O    0.14070000  0.82920000  0.03820000 -0.73100000
O        O    0.14070000  0.32920100  0.53819900 -0.73100000
O        O    0.64070000  0.82920000  0.53819900 -0.73100000
O        O    0.52500000  0.36340000  0.13160000 -0.73100000
O        O    0.02499940  0.86340000  0.13160000 -0.73100000
O        O    0.02499940  0.36340000  0.63159900 -0.73100000
O        O    0.52500000  0.86340000  0.63159900 -0.73100000
O        O    0.50680000  0.38160000  0.14850000 -0.73100000
O        O    0.00680057  0.88160000  0.14850000 -0.73100000
O        O    0.00680057  0.38160000  0.64849900 -0.73100000
O        O    0.50680000  0.88160000  0.64849900 -0.73100000
F        F    0.56520000  0.44830000  0.25140000 -0.56600000
F        F    0.06520070  0.94830000  0.25140000 -0.56600000
F        F    0.06520070  0.44830000  0.75139900 -0.56600000
F        F    0.56520000  0.94830000  0.75139900 -0.56600000
C        C    0.65110000  0.33170000  0.07499960  0.11000000
C        C    0.15110100  0.83170000  0.07499960  0.11000000
C        C    0.15110100  0.33170000  0.57500000  0.11000000
C        C    0.65110000  0.83170000  0.57500000  0.11000000
C        C    0.66439900  0.32089900  0.06160010 -0.27400000
C        C    0.16440000  0.82090000  0.06160010 -0.27400000
C        C    0.16440000  0.32089900  0.56159900 -0.27400000
C        C    0.66439900  0.82090000  0.56159900 -0.27400000
C        C    0.65770000  0.32210000  0.04150020  0.84800000
C        C    0.15770000  0.82210000  0.04150020  0.84800000
C        C    0.15770000  0.32210000  0.54149900  0.84800000
C        C    0.65770000  0.82210000  0.54149900  0.84800000
C        C    0.08999980  0.01610030  0.20920000  0.11000000
C        C    0.59000100  0.51610000  0.20920000  0.11000000
C        C    0.59000100  0.01610030  0.70920000  0.11000000
C        C    0.08999980  0.51610000  0.70920000  0.11000000
C        C    0.08659950  0.00260062  0.22250000 -0.27400000
C        C    0.58660000  0.50260000  0.22250000 -0.27400000
C        C    0.58660000  0.00260062  0.72250000 -0.27400000
C        C    0.08659950  0.50260000  0.72250000 -0.27400000
C        C    0.57760000  0.48629900  0.21620000  0.84800000
C        C    0.07760020  0.98630000  0.21620000  0.84800000
C        C    0.07760020  0.48629900  0.71620100  0.84800000
C        C    0.57760000  0.98630000  0.71620100  0.84800000
C        C    0.54690000  0.42259900  0.14810000 -0.27400000
C        C    0.04690030  0.92260000  0.14810000 -0.27400000
C        C    0.04690030  0.42259900  0.64810000 -0.27400000
C        C    0.54690000  0.92260000  0.64810000 -0.27400000
C        C    0.53110000  0.41150000  0.14490000  0.11000000
C        C    0.03110040  0.91149900  0.14490000  0.11000000
C        C    0.03110040  0.41150000  0.64490000  0.11000000
C        C    0.53110000  0.91149900  0.64490000  0.11000000
C        C    0.53440000  0.39340000  0.13610000 -0.27400000
C        C    0.03440060  0.89340100  0.13610000 -0.27400000
C        C    0.03440060  0.39340000  0.63610000 -0.27400000
C        C    0.53440000  0.89340100  0.63610000 -0.27400000
C        C    0.55290100  0.38840000  0.12980100  0.11000000
C        C    0.05289980  0.88840000  0.12980100  0.11000000
C        C    0.05289980  0.38840000  0.62980000  0.11000000
C        C    0.55290100  0.88840000  0.62980000  0.11000000
C        C    0.56750000  0.40220000  0.13010000 -0.27400000
C        C    0.06749950  0.90220000  0.13010000 -0.27400000
C        C    0.06749950  0.40220000  0.63010000 -0.27400000
C        C    0.56750000  0.90220000  0.63010000 -0.27400000
C        C    0.56269900  0.42030000  0.13620100  0.11000000
C        C    0.06270020  0.92030000  0.13620100  0.11000000
C        C    0.06270020  0.42030000  0.63620000  0.11000000
C        C    0.56269900  0.92030000  0.63620000  0.11000000
C        C    0.58630000  0.39870000  0.12300000  0.84800000
C        C    0.08630050  0.89870100  0.12300000  0.84800000
C        C    0.08630050  0.39870000  0.62299900  0.84800000
C        C    0.58630000  0.89870100  0.62299900  0.84800000
C        C    0.52170000  0.37850000  0.13920000  0.84800000
C        C    0.02170060  0.87850100  0.13920000  0.84800000
C        C    0.02170060  0.37850000  0.63920000  0.84800000
C        C    0.52170000  0.87850100  0.63920000  0.84800000
C        C    0.54760100  0.43730100  0.16140000  0.84800000
C        C    0.04759980  0.93730000  0.16140000  0.84800000
C        C    0.04759980  0.43730100  0.66140000  0.84800000
C        C    0.54760100  0.93730000  0.66140000  0.84800000
C        C    0.51530000  0.37120000  0.21090000 -0.27400000
C        C    0.01530060  0.87119900  0.21090000 -0.27400000
C        C    0.01530060  0.37120000  0.71090100 -0.27400000
C        C    0.51530000  0.87119900  0.71090100 -0.27400000
C        C    0.51760000  0.39340000  0.20930100  0.11000000
C        C    0.01759940  0.89340100  0.20930100  0.11000000
C        C    0.01759940  0.39340000  0.70930000  0.11000000
C        C    0.51760000  0.89340100  0.70930000  0.11000000
C        C    0.49950000  0.30190000  0.13960000  0.84800000
C        C    0.99949900  0.80190000  0.13960000  0.84800000
C        C    0.99949900  0.30190000  0.63960000  0.84800000
C        C    0.49950000  0.80190000  0.63960000  0.84800000
H        H    0.61789300  0.43199100  0.17943300  0.10000000
H        H    0.11789200  0.93199200  0.17943300  0.10000000
H        H    0.11789200  0.43199100  0.67943200  0.10000000
H        H    0.61789300  0.93199200  0.67943200  0.10000000
H        H    0.60095400  0.41667500  0.23306100  0.10000000
H        H    0.10095500  0.91667600  0.23306100  0.10000000
H        H    0.10095500  0.41667500  0.73306100  0.10000000
H        H    0.60095400  0.91667600  0.73306100  0.10000000
H        H    0.67780400  0.33223200  0.11328600  0.10000000
H        H    0.17780400  0.83223100  0.11328600  0.10000000
H        H    0.17780400  0.33223200  0.61328700  0.10000000
H        H    0.67780400  0.83223100  0.61328700  0.10000000
H        H    0.68962400  0.30481300  0.06001040  0.10000000
H        H    0.18962300  0.80481200  0.06001040  0.10000000
H        H    0.18962300  0.30481300  0.56001100  0.10000000
H        H    0.68962400  0.80481200  0.56001100  0.10000000
H        H    0.69422000  0.37388800  0.12526000  0.10000000
H        H    0.19422100  0.87388800  0.12526000  0.10000000
H        H    0.19422100  0.37388800  0.62526100  0.10000000
H        H    0.69422000  0.87388800  0.62526100  0.10000000
H        H    0.09072950  0.01217330  0.19408200  0.10000000
H        H    0.59073000  0.51217300  0.19408200  0.10000000
H        H    0.59073000  0.01217330  0.69408200  0.10000000
H        H    0.09072950  0.51217300  0.69408200  0.10000000
H        H    0.51007100  0.40084000  0.19914800  0.10000000
H        H    0.01007190  0.90083900  0.19914800  0.10000000
H        H    0.01007190  0.40084000  0.69914700  0.10000000
H        H    0.51007100  0.90083900  0.69914700  0.10000000
Cr       Cr   0.69519900  0.45339900  0.02260040  1.85900000
Cr       Cr   0.19520000  0.95340000  0.02260040  1.85900000
Cr       Cr   0.19520000  0.45339900  0.52260000  1.85900000
Cr       Cr   0.69519900  0.95340000  0.52260000  1.85900000
Cr       Cr   0.73640100  0.33999900  0.11970000  1.62000000
Cr       Cr   0.23640000  0.84000000  0.11970000  1.62000000
Cr       Cr   0.23640000  0.33999900  0.61970100  1.62000000
Cr       Cr   0.73640100  0.84000000  0.61970100  1.62000000
O        O    0.15429900  0.04370030  0.06710040 -0.58700000
O        O    0.65430000  0.54370000  0.06710040 -0.58700000
O        O    0.65430000  0.04370030  0.56710000 -0.58700000
O        O    0.15429900  0.54370000  0.56710000 -0.58700000
O        O    0.13470000  0.06500040  0.08559960 -0.58700000
O        O    0.63469900  0.56500000  0.08559960 -0.58700000
O        O    0.63469900  0.06500040  0.58560000 -0.58700000
O        O    0.13470000  0.56500000  0.58560000 -0.58700000
O        O    0.65169900  0.41150000  0.12650000 -0.73100000
O        O    0.15170000  0.91149900  0.12650000 -0.73100000
O        O    0.15170000  0.41150000  0.62650000 -0.73100000
O        O    0.65169900  0.91149900  0.62650000 -0.73100000
O        O    0.62160000  0.34870000  0.14990000 -0.73100000
O        O    0.12160000  0.84870000  0.14990000 -0.73100000
O        O    0.12160000  0.34870000  0.64990000 -0.73100000
O        O    0.62160000  0.84870000  0.64990000 -0.73100000
O        O    0.65960000  0.38390000  0.13460000 -0.73100000
O        O    0.15959900  0.88389900  0.13460000 -0.73100000
O        O    0.15959900  0.38390000  0.63460100 -0.73100000
O        O    0.65960000  0.88389900  0.63460100 -0.73100000
O        O    0.67360000  0.48230000  0.05090000 -0.73100000
O        O    0.17360000  0.98230000  0.05090000 -0.73100000
O        O    0.17360000  0.48230000  0.55089900 -0.73100000
O        O    0.67360000  0.98230000  0.55089900 -0.73100000
O        O    0.68860000  0.44809900  0.08910000 -0.73100000
O        O    0.18860000  0.94810000  0.08910000 -0.73100000
O        O    0.18860000  0.44809900  0.58909900 -0.73100000
O        O    0.68860000  0.94810000  0.58909900 -0.73100000
O        O    0.67760000  0.47340100  0.02199970 -0.73100000
O        O    0.17760100  0.97340000  0.02199970 -0.73100000
O        O    0.17760100  0.47340100  0.52200000 -0.73100000
O        O    0.67760000  0.97340000  0.52200000 -0.73100000
O        O    0.27770000  0.01210060  0.03420030 -0.73100000
O        O    0.77770100  0.51210000  0.03420030 -0.73100000
O        O    0.77770100  0.01210060  0.53420000 -0.73100000
O        O    0.27770000  0.51210000  0.53420000 -0.73100000
O        O    0.70380000  0.43020000  0.02470040 -0.73100000
O        O    0.20380000  0.93020000  0.02470040 -0.73100000
O        O    0.20380000  0.43020000  0.52470000 -0.73100000
O        O    0.70380000  0.93020000  0.52470000 -0.73100000
O        O    0.71529900  0.44050100  0.07609970 -0.58700000
O        O    0.21530000  0.94050000  0.07609970 -0.58700000
O        O    0.21530000  0.44050100  0.57610000 -0.58700000
O        O    0.71529900  0.94050000  0.57610000 -0.58700000
O        O    0.75130100  0.30330000  0.09160050 -0.73100000
O        O    0.25130000  0.80330100  0.09160050 -0.73100000
O        O    0.25130000  0.30330000  0.59160000 -0.73100000
O        O    0.75130100  0.80330100  0.59160000 -0.73100000
O        O    0.58020000  0.32030000  0.22260000 -0.73100000
O        O    0.08019950  0.82029900  0.22260000 -0.73100000
O        O    0.08019950  0.32030000  0.72260100 -0.73100000
O        O    0.58020000  0.82029900  0.72260100 -0.73100000
O        O    0.74010000  0.31339900  0.11880000 -0.58700000
O        O    0.24010100  0.81340000  0.11880000 -0.58700000
O        O    0.24010100  0.31339900  0.61879900 -0.58700000
O        O    0.74010000  0.81340000  0.61879900 -0.58700000
O        O    0.60929900  0.32920100  0.21180000 -0.58700000
O        O    0.10930000  0.82920000  0.21180000 -0.58700000
O        O    0.10930000  0.32920100  0.71180000 -0.58700000
O        O    0.60929900  0.82920000  0.71180000 -0.58700000
O        O    0.72500000  0.36340000  0.11840000 -0.58700000
O        O    0.22500000  0.86340000  0.11840000 -0.58700000
O        O    0.22500000  0.36340000  0.61840000 -0.58700000
O        O    0.72500000  0.86340000  0.61840000 -0.58700000
O        O    0.74320000  0.38160000  0.10150000 -0.73100000
O        O    0.24320000  0.88160000  0.10150000 -0.73100000
O        O    0.24320000  0.38160000  0.60150000 -0.73100000
O        O    0.74320000  0.88160000  0.60150000 -0.73100000
F        F    0.72570000  0.33450100  0.14250100 -0.56600000
F        F    0.22570000  0.83450000  0.14250100 -0.56600000
F        F    0.22570000  0.33450100  0.64250000 -0.56600000
F        F    0.72570000  0.83450000  0.64250000 -0.56600000
C        C    0.59890000  0.33170000  0.17500000  0.11000000
C        C    0.09890040  0.83170000  0.17500000  0.11000000
C        C    0.09890040  0.33170000  0.67499900  0.11000000
C        C    0.59890000  0.83170000  0.67499900  0.11000000
C        C    0.58560000  0.32089900  0.18840000 -0.27400000
C        C    0.08559960  0.82090000  0.18840000 -0.27400000
C        C    0.08559960  0.32089900  0.68840000 -0.27400000
C        C    0.58560000  0.82090000  0.68840000 -0.27400000
C        C    0.59229900  0.32210000  0.20849900  0.84800000
C        C    0.09230010  0.82210000  0.20849900  0.84800000
C        C    0.09230010  0.32210000  0.70850000  0.84800000
C        C    0.59229900  0.82210000  0.70850000  0.84800000
C        C    0.16000000  0.01610030  0.04080070  0.11000000
C        C    0.66000100  0.51610000  0.04080070  0.11000000
C        C    0.66000100  0.01610030  0.54080000  0.11000000
C        C    0.16000000  0.51610000  0.54080000  0.11000000
C        C    0.16340000  0.00260062  0.02749990 -0.27400000
C        C    0.66339900  0.50260000  0.02749990 -0.27400000
C        C    0.66339900  0.00260062  0.52750100 -0.27400000
C        C    0.16340000  0.50260000  0.52750100 -0.27400000
C        C    0.67240000  0.48629900  0.03379980  0.84800000
C        C    0.17239900  0.98630000  0.03379980  0.84800000
C        C    0.17239900  0.48629900  0.53380100  0.84800000
C        C    0.67240000  0.98630000  0.53380100  0.84800000
C        C    0.70310000  0.42259900  0.10190000 -0.27400000
C        C    0.20309900  0.92260000  0.10190000 -0.27400000
C        C    0.20309900  0.42259900  0.60189900 -0.27400000
C        C    0.70310000  0.92260000  0.60189900 -0.27400000
C        C    0.71890000  0.41150000  0.10510000  0.11000000
C        C    0.21890100  0.91149900  0.10510000  0.11000000
C        C    0.21890100  0.41150000  0.60509900  0.11000000
C        C    0.71890000  0.91149900  0.60509900  0.11000000
C        C    0.71560000  0.39340000  0.11390100 -0.27400000
C        C    0.21560000  0.89340100  0.11390100 -0.27400000
C        C    0.21560000  0.39340000  0.61390000 -0.27400000
C        C    0.71560000  0.89340100  0.61390000 -0.27400000
C        C    0.69710100  0.38840000  0.12020000  0.11000000
C        C    0.19710000  0.88840000  0.12020000  0.11000000
C        C    0.19710000  0.38840000  0.62020000  0.11000000
C        C    0.69710100  0.88840000  0.62020000  0.11000000
C        C    0.68249900  0.40220000  0.11990000 -0.27400000
C        C    0.18250000  0.90220000  0.11990000 -0.27400000
C        C    0.18250000  0.40220000  0.61989900 -0.27400000
C        C    0.68249900  0.90220000  0.61989900 -0.27400000
C        C    0.68730000  0.42030000  0.11380000  0.11000000
C        C    0.18729900  0.92030000  0.11380000  0.11000000
C        C    0.18729900  0.42030000  0.61380000  0.11000000
C        C    0.68730000  0.92030000  0.61380000  0.11000000
C        C    0.66370000  0.39870000  0.12700000  0.84800000
C        C    0.16370100  0.89870100  0.12700000  0.84800000
C        C    0.16370100  0.39870000  0.62700000  0.84800000
C        C    0.66370000  0.89870100  0.62700000  0.84800000
C        C    0.72830000  0.37850000  0.11080100  0.84800000
C        C    0.22830000  0.87850100  0.11080100  0.84800000
C        C    0.22830000  0.37850000  0.61080000  0.84800000
C        C    0.72830000  0.87850100  0.61080000  0.84800000
C        C    0.70240000  0.43730100  0.08859940  0.84800000
C        C    0.20240000  0.93730000  0.08859940  0.84800000
C        C    0.20240000  0.43730100  0.58860000  0.84800000
C        C    0.70240000  0.93730000  0.58860000  0.84800000
C        C    0.73470000  0.37120000  0.03909980 -0.27400000
C        C    0.23470000  0.87119900  0.03909980 -0.27400000
C        C    0.23470000  0.37120000  0.53910100 -0.27400000
C        C    0.73470000  0.87119900  0.53910100 -0.27400000
C        C    0.73240000  0.39340000  0.04070050  0.11000000
C        C    0.23240000  0.89340100  0.04070050  0.11000000
C        C    0.23240000  0.39340000  0.54070000  0.11000000
C        C    0.73240000  0.89340100  0.54070000  0.11000000
C        C    0.75050000  0.30190000  0.11040000  0.84800000
C        C    0.25050000  0.80190000  0.11040000  0.84800000
C        C    0.25050000  0.30190000  0.61039900  0.84800000
C        C    0.75050000  0.80190000  0.61039900  0.84800000
H        H    0.63210800  0.43199100  0.07056650  0.10000000
H        H    0.13210800  0.93199200  0.07056650  0.10000000
H        H    0.13210800  0.43199100  0.57056700  0.10000000
H        H    0.63210800  0.93199200  0.57056700  0.10000000
H        H    0.64904500  0.41667500  0.01693970  0.10000000
H        H    0.14904600  0.91667600  0.01693970  0.10000000
H        H    0.14904600  0.41667500  0.51693900  0.10000000
H        H    0.64904500  0.91667600  0.51693900  0.10000000
H        H    0.57219700  0.33223200  0.13671400  0.10000000
H        H    0.07219600  0.83223100  0.13671400  0.10000000
H        H    0.07219600  0.33223200  0.63671400  0.10000000
H        H    0.57219700  0.83223100  0.63671400  0.10000000
H        H    0.56037600  0.30481300  0.18998900  0.10000000
H        H    0.06037660  0.80481200  0.18998900  0.10000000
H        H    0.06037660  0.30481300  0.68998900  0.10000000
H        H    0.56037600  0.80481200  0.68998900  0.10000000
H        H    0.55578000  0.37388800  0.12473900  0.10000000
H        H    0.05578030  0.87388800  0.12473900  0.10000000
H        H    0.05578030  0.37388800  0.62474000  0.10000000
H        H    0.55578000  0.87388800  0.62474000  0.10000000
H        H    0.15927000  0.01217330  0.05591740  0.10000000
H        H    0.65927100  0.51217300  0.05591740  0.10000000
H        H    0.65927100  0.01217330  0.55591800  0.10000000
H        H    0.15927000  0.51217300  0.55591800  0.10000000
H        H    0.73992800  0.40084000  0.05085200  0.10000000
H        H    0.23992900  0.90083900  0.05085200  0.10000000
H        H    0.23992900  0.40084000  0.55085300  0.10000000
H        H    0.73992800  0.90083900  0.55085300  0.10000000
Cr       Cr   0.05479960  0.29660000  0.02260040  1.62000000
Cr       Cr   0.55480000  0.79660000  0.02260040  1.62000000
Cr       Cr   0.55480000  0.29660000  0.52260000  1.62000000
Cr       Cr   0.05479960  0.79660000  0.52260000  1.62000000
Cr       Cr   0.01359980  0.40999900  0.11970000  1.85900000
Cr       Cr   0.51360000  0.91000000  0.11970000  1.85900000
Cr       Cr   0.51360000  0.40999900  0.61970100  1.85900000
Cr       Cr   0.01359980  0.91000000  0.61970100  1.85900000
O        O    0.09570030  0.20629900  0.06710040 -0.58700000
O        O    0.59570000  0.70630000  0.06710040 -0.58700000
O        O    0.59570000  0.20629900  0.56710000 -0.58700000
O        O    0.09570030  0.70630000  0.56710000 -0.58700000
O        O    0.11530000  0.18500100  0.08559960 -0.58700000
O        O    0.61530000  0.68500000  0.08559960 -0.58700000
O        O    0.61530000  0.18500100  0.58560000 -0.58700000
O        O    0.11530000  0.68500000  0.58560000 -0.58700000
O        O    0.09829960  0.33850000  0.12650000 -0.73100000
O        O    0.59830000  0.83850000  0.12650000 -0.73100000
O        O    0.59830000  0.33850000  0.62650000 -0.73100000
O        O    0.09829960  0.83850000  0.62650000 -0.73100000
O        O    0.12840000  0.40130100  0.14990000 -0.58700000
O        O    0.62839900  0.90130000  0.14990000 -0.58700000
O        O    0.62839900  0.40130100  0.64990000 -0.58700000
O        O    0.12840000  0.90130000  0.64990000 -0.58700000
O        O    0.09040030  0.36610000  0.13460000 -0.58700000
O        O    0.59040000  0.86610000  0.13460000 -0.58700000
O        O    0.59040000  0.36610000  0.63460100 -0.58700000
O        O    0.09040030  0.86610000  0.63460100 -0.58700000
O        O    0.07640010  0.26770100  0.05090000 -0.73100000
O        O    0.57639900  0.76770000  0.05090000 -0.73100000
O        O    0.57639900  0.26770100  0.55089900 -0.73100000
O        O    0.07640010  0.76770000  0.55089900 -0.73100000
O        O    0.06139990  0.30190000  0.08910000 -0.73100000
O        O    0.56140100  0.80190000  0.08910000 -0.73100000
O        O    0.56140100  0.30190000  0.58909900 -0.73100000
O        O    0.06139990  0.80190000  0.58909900 -0.73100000
O        O    0.07240040  0.27660000  0.02199970 -0.58700000
O        O    0.57240000  0.77660000  0.02199970 -0.58700000
O        O    0.57240000  0.27660000  0.52200000 -0.58700000
O        O    0.07240040  0.77660000  0.52200000 -0.58700000
O        O    0.97230000  0.23790000  0.03420030 -0.58700000
O        O    0.47230100  0.73790000  0.03420030 -0.58700000
O        O    0.47230100  0.23790000  0.53420000 -0.58700000
O        O    0.97230000  0.73790000  0.53420000 -0.58700000
O        O    0.04619940  0.31979900  0.02470040 -0.58700000
O        O    0.54620000  0.81980000  0.02470040 -0.58700000
O        O    0.54620000  0.31979900  0.52470000 -0.58700000
O        O    0.04619940  0.81980000  0.52470000 -0.58700000
O        O    0.03469960  0.30950000  0.07609970 -0.73100000
O        O    0.53470000  0.80950000  0.07609970 -0.73100000
O        O    0.53470000  0.30950000  0.57610000 -0.73100000
O        O    0.03469960  0.80950000  0.57610000 -0.73100000
O        O    0.99870000  0.44670000  0.09160050 -0.73100000
O        O    0.49870000  0.94670000  0.09160050 -0.73100000
O        O    0.49870000  0.44670000  0.59160000 -0.73100000
O        O    0.99870000  0.94670000  0.59160000 -0.73100000
O        O    0.16980000  0.42970000  0.22260000 -0.73100000
O        O    0.66979900  0.92970000  0.22260000 -0.73100000
O        O    0.66979900  0.42970000  0.72260100 -0.73100000
O        O    0.16980000  0.92970000  0.72260100 -0.73100000
O        O    0.00990046  0.43660000  0.11880000 -0.73100000
O        O    0.50990000  0.93660000  0.11880000 -0.73100000
O        O    0.50990000  0.43660000  0.61879900 -0.73100000
O        O    0.00990046  0.93660000  0.61879900 -0.73100000
O        O    0.14070000  0.42080000  0.21180000 -0.73100000
O        O    0.64070000  0.92080000  0.21180000 -0.73100000
O        O    0.64070000  0.42080000  0.71180000 -0.73100000
O        O    0.14070000  0.92080000  0.71180000 -0.73100000
O        O    0.02499940  0.38659900  0.11840000 -0.73100000
O        O    0.52500000  0.88660000  0.11840000 -0.73100000
O        O    0.52500000  0.38659900  0.61840000 -0.73100000
O        O    0.02499940  0.88660000  0.61840000 -0.73100000
O        O    0.00680057  0.36840100  0.10150000 -0.58700000
O        O    0.50680000  0.86840000  0.10150000 -0.58700000
O        O    0.50680000  0.36840100  0.60150000 -0.58700000
O        O    0.00680057  0.86840000  0.60150000 -0.58700000
F        F    0.56520000  0.30169900  0.49860000 -0.56600000
F        F    0.06520070  0.80170000  0.49860000 -0.56600000
F        F    0.06520070  0.30169900  0.99860000 -0.56600000
F        F    0.56520000  0.80170000  0.99860000 -0.56600000
C        C    0.15110100  0.41830100  0.17500000  0.11000000
C        C    0.65110000  0.91830000  0.17500000  0.11000000
C        C    0.65110000  0.41830100  0.67499900  0.11000000
C        C    0.15110100  0.91830000  0.67499900  0.11000000
C        C    0.16440000  0.42910000  0.18840000 -0.27400000
C        C    0.66439900  0.92910000  0.18840000 -0.27400000
C        C    0.66439900  0.42910000  0.68840000 -0.27400000
C        C    0.16440000  0.92910000  0.68840000 -0.27400000
C        C    0.15770000  0.42790100  0.20849900  0.84800000
C        C    0.65770000  0.92790000  0.20849900  0.84800000
C        C    0.65770000  0.42790100  0.70850000  0.84800000
C        C    0.15770000  0.92790000  0.70850000  0.84800000
C        C    0.08999980  0.23389900  0.04080070  0.11000000
C        C    0.59000100  0.73390000  0.04080070  0.11000000
C        C    0.59000100  0.23389900  0.54080000  0.11000000
C        C    0.08999980  0.73390000  0.54080000  0.11000000
C        C    0.08659950  0.24740000  0.02749990 -0.27400000
C        C    0.58660000  0.74740000  0.02749990 -0.27400000
C        C    0.58660000  0.24740000  0.52750100 -0.27400000
C        C    0.08659950  0.74740000  0.52750100 -0.27400000
C        C    0.07760020  0.26370000  0.03379980  0.84800000
C        C    0.57760000  0.76370000  0.03379980  0.84800000
C        C    0.57760000  0.26370000  0.53380100  0.84800000
C        C    0.07760020  0.76370000  0.53380100  0.84800000
C        C    0.04690030  0.32740000  0.10190000 -0.27400000
C        C    0.54690000  0.82740000  0.10190000 -0.27400000
C        C    0.54690000  0.32740000  0.60189900 -0.27400000
C        C    0.04690030  0.82740000  0.60189900 -0.27400000
C        C    0.03110040  0.33850000  0.10510000  0.11000000
C        C    0.53110000  0.83850000  0.10510000  0.11000000
C        C    0.53110000  0.33850000  0.60509900  0.11000000
C        C    0.03110040  0.83850000  0.60509900  0.11000000
C        C    0.03440060  0.35660000  0.11390100 -0.27400000
C        C    0.53440000  0.85660000  0.11390100 -0.27400000
C        C    0.53440000  0.35660000  0.61390000 -0.27400000
C        C    0.03440060  0.85660000  0.61390000 -0.27400000
C        C    0.05289980  0.36160000  0.12020000  0.11000000
C        C    0.55290100  0.86160100  0.12020000  0.11000000
C        C    0.55290100  0.36160000  0.62020000  0.11000000
C        C    0.05289980  0.86160100  0.62020000  0.11000000
C        C    0.06749950  0.34780000  0.11990000 -0.27400000
C        C    0.56750000  0.84780100  0.11990000 -0.27400000
C        C    0.56750000  0.34780000  0.61989900 -0.27400000
C        C    0.06749950  0.84780100  0.61989900 -0.27400000
C        C    0.06270020  0.32970000  0.11380000  0.11000000
C        C    0.56269900  0.82970100  0.11380000  0.11000000
C        C    0.56269900  0.32970000  0.61380000  0.11000000
C        C    0.06270020  0.82970100  0.61380000  0.11000000
C        C    0.08630050  0.35130000  0.12700000  0.84800000
C        C    0.58630000  0.85130000  0.12700000  0.84800000
C        C    0.58630000  0.35130000  0.62700000  0.84800000
C        C    0.08630050  0.85130000  0.62700000  0.84800000
C        C    0.02170060  0.37150000  0.11080100  0.84800000
C        C    0.52170000  0.87150000  0.11080100  0.84800000
C        C    0.52170000  0.37150000  0.61080000  0.84800000
C        C    0.02170060  0.87150000  0.61080000  0.84800000
C        C    0.04759980  0.31270000  0.08859940  0.84800000
C        C    0.54760100  0.81270100  0.08859940  0.84800000
C        C    0.54760100  0.31270000  0.58860000  0.84800000
C        C    0.04759980  0.81270100  0.58860000  0.84800000
C        C    0.01530060  0.37880000  0.03909980 -0.27400000
C        C    0.51530000  0.87880000  0.03909980 -0.27400000
C        C    0.51530000  0.37880000  0.53910100 -0.27400000
C        C    0.01530060  0.87880000  0.53910100 -0.27400000
C        C    0.01759940  0.35660000  0.04070050  0.11000000
C        C    0.51760000  0.85660000  0.04070050  0.11000000
C        C    0.51760000  0.35660000  0.54070000  0.11000000
C        C    0.01759940  0.85660000  0.54070000  0.11000000
C        C    0.99949900  0.44809900  0.11040000  0.84800000
C        C    0.49950000  0.94810000  0.11040000  0.84800000
C        C    0.49950000  0.44809900  0.61039900  0.84800000
C        C    0.99949900  0.94810000  0.61039900  0.84800000
H        H    0.11789200  0.31800800  0.07056650  0.10000000
H        H    0.61789300  0.81800900  0.07056650  0.10000000
H        H    0.61789300  0.31800800  0.57056700  0.10000000
H        H    0.11789200  0.81800900  0.57056700  0.10000000
H        H    0.10095500  0.33332400  0.01693970  0.10000000
H        H    0.60095400  0.83332400  0.01693970  0.10000000
H        H    0.60095400  0.33332400  0.51693900  0.10000000
H        H    0.10095500  0.83332400  0.51693900  0.10000000
H        H    0.06196770  0.14617600  0.14551700  0.10000000
H        H    0.56196800  0.64617700  0.14551700  0.10000000
H        H    0.56196800  0.14617600  0.64551600  0.10000000
H        H    0.06196770  0.64617700  0.64551600  0.10000000
H        H    0.17780400  0.41776800  0.13671400  0.10000000
H        H    0.67780400  0.91776900  0.13671400  0.10000000
H        H    0.67780400  0.41776800  0.63671400  0.10000000
H        H    0.17780400  0.91776900  0.63671400  0.10000000
H        H    0.19422100  0.37611200  0.12473900  0.10000000
H        H    0.69422000  0.87611300  0.12473900  0.10000000
H        H    0.69422000  0.37611200  0.62474000  0.10000000
H        H    0.19422100  0.87611300  0.62474000  0.10000000
H        H    0.09072950  0.23782800  0.05591740  0.10000000
H        H    0.59073000  0.73782700  0.05591740  0.10000000
H        H    0.59073000  0.23782800  0.55591800  0.10000000
H        H    0.09072950  0.73782700  0.55591800  0.10000000
H        H    0.01007190  0.34916100  0.05085200  0.10000000
H        H    0.51007100  0.84916000  0.05085200  0.10000000
H        H    0.51007100  0.34916100  0.55085300  0.10000000
H        H    0.01007190  0.84916000  0.55085300  0.10000000
Cr       Cr   0.19520000  0.29660000  0.22740100  1.85900000
Cr       Cr   0.69519900  0.79660000  0.22740100  1.85900000
Cr       Cr   0.69519900  0.29660000  0.72740000  1.85900000
Cr       Cr   0.19520000  0.79660000  0.72740000  1.85900000
Cr       Cr   0.23640000  0.40999900  0.13030000  1.85900000
Cr       Cr   0.73640100  0.91000000  0.13030000  1.85900000
Cr       Cr   0.73640100  0.40999900  0.63030100  1.85900000
Cr       Cr   0.23640000  0.91000000  0.63030100  1.85900000
O        O    0.15429900  0.20629900  0.18290100 -0.73100000
O        O    0.65430000  0.70630000  0.18290100 -0.73100000
O        O    0.65430000  0.20629900  0.68290000 -0.73100000
O        O    0.15429900  0.70630000  0.68290000 -0.73100000
O        O    0.13470000  0.18500100  0.16440000 -0.73100000
O        O    0.63469900  0.68500000  0.16440000 -0.73100000
O        O    0.63469900  0.18500100  0.66439900 -0.73100000
O        O    0.13470000  0.68500000  0.66439900 -0.73100000
O        O    0.15170000  0.33850000  0.12350100 -0.73100000
O        O    0.65169900  0.83850000  0.12350100 -0.73100000
O        O    0.65169900  0.33850000  0.62350000 -0.73100000
O        O    0.15170000  0.83850000  0.62350000 -0.73100000
O        O    0.12160000  0.40130100  0.10010100 -0.73100000
O        O    0.62160000  0.90130000  0.10010100 -0.73100000
O        O    0.62160000  0.40130100  0.60010000 -0.73100000
O        O    0.12160000  0.90130000  0.60010000 -0.73100000
O        O    0.15959900  0.36610000  0.11540000 -0.73100000
O        O    0.65960000  0.86610000  0.11540000 -0.73100000
O        O    0.65960000  0.36610000  0.61540000 -0.73100000
O        O    0.15959900  0.86610000  0.61540000 -0.73100000
O        O    0.17360000  0.26770100  0.19910000 -0.73100000
O        O    0.67360000  0.76770000  0.19910000 -0.73100000
O        O    0.67360000  0.26770100  0.69910000 -0.73100000
O        O    0.17360000  0.76770000  0.69910000 -0.73100000
O        O    0.18860000  0.30190000  0.16090000 -0.73100000
O        O    0.68860000  0.80190000  0.16090000 -0.73100000
O        O    0.68860000  0.30190000  0.66090000 -0.73100000
O        O    0.18860000  0.80190000  0.66090000 -0.73100000
O        O    0.17760100  0.27660000  0.22800000 -0.73100000
O        O    0.67760000  0.77660000  0.22800000 -0.73100000
O        O    0.67760000  0.27660000  0.72800100 -0.73100000
O        O    0.17760100  0.77660000  0.72800100 -0.73100000
O        O    0.27770000  0.23790000  0.21579900 -0.73100000
O        O    0.77770100  0.73790000  0.21579900 -0.73100000
O        O    0.77770100  0.23790000  0.71580000 -0.73100000
O        O    0.27770000  0.73790000  0.71580000 -0.73100000
O        O    0.20380000  0.31979900  0.22530100 -0.73100000
O        O    0.70380000  0.81980000  0.22530100 -0.73100000
O        O    0.70380000  0.31979900  0.72530000 -0.73100000
O        O    0.20380000  0.81980000  0.72530000 -0.73100000
O        O    0.21530000  0.30950000  0.17390000 -0.58700000
O        O    0.71529900  0.80950000  0.17390000 -0.58700000
O        O    0.71529900  0.30950000  0.67390100 -0.58700000
O        O    0.21530000  0.80950000  0.67390100 -0.58700000
O        O    0.25130000  0.44670000  0.15840100 -0.58700000
O        O    0.75130100  0.94670000  0.15840100 -0.58700000
O        O    0.75130100  0.44670000  0.65840000 -0.58700000
O        O    0.25130000  0.94670000  0.65840000 -0.58700000
O        O    0.08019950  0.42970000  0.02739980 -0.58700000
O        O    0.58020000  0.92970000  0.02739980 -0.58700000
O        O    0.58020000  0.42970000  0.52740000 -0.58700000
O        O    0.08019950  0.92970000  0.52740000 -0.58700000
O        O    0.24010100  0.43660000  0.13120000 -0.73100000
O        O    0.74010000  0.93660000  0.13120000 -0.73100000
O        O    0.74010000  0.43660000  0.63120000 -0.73100000
O        O    0.24010100  0.93660000  0.63120000 -0.73100000
O        O    0.10930000  0.42080000  0.03820000 -0.73100000
O        O    0.60929900  0.92080000  0.03820000 -0.73100000
O        O    0.60929900  0.42080000  0.53819900 -0.73100000
O        O    0.10930000  0.92080000  0.53819900 -0.73100000
O        O    0.22500000  0.38659900  0.13160000 -0.73100000
O        O    0.72500000  0.88660000  0.13160000 -0.73100000
O        O    0.72500000  0.38659900  0.63159900 -0.73100000
O        O    0.22500000  0.88660000  0.63159900 -0.73100000
O        O    0.24320000  0.36840100  0.14850000 -0.73100000
O        O    0.74320000  0.86840000  0.14850000 -0.73100000
O        O    0.74320000  0.36840100  0.64849900 -0.73100000
O        O    0.24320000  0.86840000  0.64849900 -0.73100000
C        C    0.09890040  0.41830100  0.07499960  0.11000000
C        C    0.59890000  0.91830000  0.07499960  0.11000000
C        C    0.59890000  0.41830100  0.57500000  0.11000000
C        C    0.09890040  0.91830000  0.57500000  0.11000000
C        C    0.08559960  0.42910000  0.06160010 -0.27400000
C        C    0.58560000  0.92910000  0.06160010 -0.27400000
C        C    0.58560000  0.42910000  0.56159900 -0.27400000
C        C    0.08559960  0.92910000  0.56159900 -0.27400000
C        C    0.09230010  0.42790100  0.04150020  0.84800000
C        C    0.59229900  0.92790000  0.04150020  0.84800000
C        C    0.59229900  0.42790100  0.54149900  0.84800000
C        C    0.09230010  0.92790000  0.54149900  0.84800000
C        C    0.16000000  0.23389900  0.20920000  0.11000000
C        C    0.66000100  0.73390000  0.20920000  0.11000000
C        C    0.66000100  0.23389900  0.70920000  0.11000000
C        C    0.16000000  0.73390000  0.70920000  0.11000000
C        C    0.16340000  0.24740000  0.22250000 -0.27400000
C        C    0.66339900  0.74740000  0.22250000 -0.27400000
C        C    0.66339900  0.24740000  0.72250000 -0.27400000
C        C    0.16340000  0.74740000  0.72250000 -0.27400000
C        C    0.17239900  0.26370000  0.21620000  0.84800000
C        C    0.67240000  0.76370000  0.21620000  0.84800000
C        C    0.67240000  0.26370000  0.71620100  0.84800000
C        C    0.17239900  0.76370000  0.71620100  0.84800000
C        C    0.20309900  0.32740000  0.14810000 -0.27400000
C        C    0.70310000  0.82740000  0.14810000 -0.27400000
C        C    0.70310000  0.32740000  0.64810000 -0.27400000
C        C    0.20309900  0.82740000  0.64810000 -0.27400000
C        C    0.21890100  0.33850000  0.14490000  0.11000000
C        C    0.71890000  0.83850000  0.14490000  0.11000000
C        C    0.71890000  0.33850000  0.64490000  0.11000000
C        C    0.21890100  0.83850000  0.64490000  0.11000000
C        C    0.21560000  0.35660000  0.13610000 -0.27400000
C        C    0.71560000  0.85660000  0.13610000 -0.27400000
C        C    0.71560000  0.35660000  0.63610000 -0.27400000
C        C    0.21560000  0.85660000  0.63610000 -0.27400000
C        C    0.19710000  0.36160000  0.12980100  0.11000000
C        C    0.69710100  0.86160100  0.12980100  0.11000000
C        C    0.69710100  0.36160000  0.62980000  0.11000000
C        C    0.19710000  0.86160100  0.62980000  0.11000000
C        C    0.18250000  0.34780000  0.13010000 -0.27400000
C        C    0.68249900  0.84780100  0.13010000 -0.27400000
C        C    0.68249900  0.34780000  0.63010000 -0.27400000
C        C    0.18250000  0.84780100  0.63010000 -0.27400000
C        C    0.18729900  0.32970000  0.13620100  0.11000000
C        C    0.68730000  0.82970100  0.13620100  0.11000000
C        C    0.68730000  0.32970000  0.63620000  0.11000000
C        C    0.18729900  0.82970100  0.63620000  0.11000000
C        C    0.16370100  0.35130000  0.12300000  0.84800000
C        C    0.66370000  0.85130000  0.12300000  0.84800000
C        C    0.66370000  0.35130000  0.62299900  0.84800000
C        C    0.16370100  0.85130000  0.62299900  0.84800000
C        C    0.22830000  0.37150000  0.13920000  0.84800000
C        C    0.72830000  0.87150000  0.13920000  0.84800000
C        C    0.72830000  0.37150000  0.63920000  0.84800000
C        C    0.22830000  0.87150000  0.63920000  0.84800000
C        C    0.20240000  0.31270000  0.16140000  0.84800000
C        C    0.70240000  0.81270100  0.16140000  0.84800000
C        C    0.70240000  0.31270000  0.66140000  0.84800000
C        C    0.20240000  0.81270100  0.66140000  0.84800000
C        C    0.23470000  0.37880000  0.21090000 -0.27400000
C        C    0.73470000  0.87880000  0.21090000 -0.27400000
C        C    0.73470000  0.37880000  0.71090100 -0.27400000
C        C    0.23470000  0.87880000  0.71090100 -0.27400000
C        C    0.23240000  0.35660000  0.20930100  0.11000000
C        C    0.73240000  0.85660000  0.20930100  0.11000000
C        C    0.73240000  0.35660000  0.70930000  0.11000000
C        C    0.23240000  0.85660000  0.70930000  0.11000000
C        C    0.25050000  0.44809900  0.13960000  0.84800000
C        C    0.75050000  0.94810000  0.13960000  0.84800000
C        C    0.75050000  0.44809900  0.63960000  0.84800000
C        C    0.25050000  0.94810000  0.63960000  0.84800000
H        H    0.13210800  0.31800800  0.17943300  0.10000000
H        H    0.63210800  0.81800900  0.17943300  0.10000000
H        H    0.63210800  0.31800800  0.67943200  0.10000000
H        H    0.13210800  0.81800900  0.67943200  0.10000000
H        H    0.14904600  0.33332400  0.23306100  0.10000000
H        H    0.64904500  0.83332400  0.23306100  0.10000000
H        H    0.64904500  0.33332400  0.73306100  0.10000000
H        H    0.14904600  0.83332400  0.73306100  0.10000000
H        H    0.18803200  0.14617600  0.10448400  0.10000000
H        H    0.68803100  0.64617700  0.10448400  0.10000000
H        H    0.68803100  0.14617600  0.60448400  0.10000000
H        H    0.18803200  0.64617700  0.60448400  0.10000000
H        H    0.07219600  0.41776800  0.11328600  0.10000000
H        H    0.57219700  0.91776900  0.11328600  0.10000000
H        H    0.57219700  0.41776800  0.61328700  0.10000000
H        H    0.07219600  0.91776900  0.61328700  0.10000000
H        H    0.05578030  0.37611200  0.12526000  0.10000000
H        H    0.55578000  0.87611300  0.12526000  0.10000000
H        H    0.55578000  0.37611200  0.62526100  0.10000000
H        H    0.05578030  0.87611300  0.62526100  0.10000000
H        H    0.15927000  0.23782800  0.19408200  0.10000000
H        H    0.65927100  0.73782700  0.19408200  0.10000000
H        H    0.65927100  0.23782800  0.69408200  0.10000000
H        H    0.15927000  0.73782700  0.69408200  0.10000000
H        H    0.23992900  0.34916100  0.19914800  0.10000000
H        H    0.73992800  0.84916000  0.19914800  0.10000000
H        H    0.73992800  0.34916100  0.69914700  0.10000000
H        H    0.23992900  0.84916000  0.69914700  0.10000000
Cr       Cr   0.30480100  0.47740000  0.04659990  1.62000000
Cr       Cr   0.80480000  0.97740000  0.04659990  1.62000000
Cr       Cr   0.80480000  0.47740000  0.54660100  1.62000000
Cr       Cr   0.30480100  0.97740000  0.54660100  1.62000000
Cr       Cr   0.26359900  0.38029900  0.16000000  1.85900000
Cr       Cr   0.76360000  0.88030000  0.16000000  1.85900000
Cr       Cr   0.76360000  0.38029900  0.66000100  1.85900000
Cr       Cr   0.26359900  0.88030000  0.66000100  1.85900000
O        O    0.84569900  0.43290000  0.45630000 -0.73100000
O        O    0.34570000  0.93290000  0.45630000 -0.73100000
O        O    0.34570000  0.43290000  0.95630000 -0.73100000
O        O    0.84569900  0.93290000  0.95630000 -0.73100000
O        O    0.86530000  0.41440000  0.43500000 -0.73100000
O        O    0.36530100  0.91440000  0.43500000 -0.73100000
O        O    0.36530100  0.41440000  0.93500000 -0.73100000
O        O    0.86530000  0.91440000  0.93500000 -0.73100000
O        O    0.34830100  0.37350000  0.08850060 -0.58700000
O        O    0.84830000  0.87350000  0.08850060 -0.58700000
O        O    0.84830000  0.37350000  0.58850000 -0.58700000
O        O    0.34830100  0.87350000  0.58850000 -0.58700000
O        O    0.37840000  0.35010000  0.15130000 -0.73100000
O        O    0.87840000  0.85010000  0.15130000 -0.73100000
O        O    0.87840000  0.35010000  0.65130000 -0.73100000
O        O    0.37840000  0.85010000  0.65130000 -0.73100000
O        O    0.34040000  0.36539900  0.11610100 -0.73100000
O        O    0.84040100  0.86540000  0.11610100 -0.73100000
O        O    0.84040100  0.36539900  0.61610000 -0.73100000
O        O    0.34040000  0.86540000  0.61610000 -0.73100000
O        O    0.32640000  0.44910100  0.01769960 -0.73100000
O        O    0.82640000  0.94910000  0.01769960 -0.73100000
O        O    0.82640000  0.44910100  0.51770000 -0.73100000
O        O    0.32640000  0.94910000  0.51770000 -0.73100000
O        O    0.31140000  0.41090100  0.05189990 -0.73100000
O        O    0.81140000  0.91090000  0.05189990 -0.73100000
O        O    0.81140000  0.41090100  0.55190100 -0.73100000
O        O    0.31140000  0.91090000  0.55190100 -0.73100000
O        O    0.32240000  0.47800000  0.02660010 -0.58700000
O        O    0.82239900  0.97800000  0.02660010 -0.58700000
O        O    0.82239900  0.47800000  0.52659900 -0.58700000
O        O    0.32240000  0.97800000  0.52659900 -0.58700000
O        O    0.72230000  0.46580000  0.48790000 -0.58700000
O        O    0.22229900  0.96580000  0.48790000 -0.58700000
O        O    0.22229900  0.46580000  0.98789900 -0.58700000
O        O    0.72230000  0.96580000  0.98789900 -0.58700000
O        O    0.29620000  0.47530000  0.06979980 -0.58700000
O        O    0.79620000  0.97530000  0.06979980 -0.58700000
O        O    0.79620000  0.47530000  0.56980000 -0.58700000
O        O    0.29620000  0.97530000  0.56980000 -0.58700000
O        O    0.28470100  0.42390000  0.05950010 -0.73100000
O        O    0.78470000  0.92390000  0.05950010 -0.73100000
O        O    0.78470000  0.42390000  0.55949900 -0.73100000
O        O    0.28470100  0.92390000  0.55949900 -0.73100000
O        O    0.24869900  0.40840000  0.19670100 -0.58700000
O        O    0.74870000  0.90839900  0.19670100 -0.58700000
O        O    0.74870000  0.40840000  0.69670000 -0.58700000
O        O    0.24869900  0.90839900  0.69670000 -0.58700000
O        O    0.41980000  0.27739900  0.17970100 -0.73100000
O        O    0.91980100  0.77740000  0.17970100 -0.73100000
O        O    0.91980100  0.27739900  0.67970000 -0.73100000
O        O    0.41980000  0.77740000  0.67970000 -0.73100000
O        O    0.25990000  0.38120100  0.18660000 -0.73100000
O        O    0.75989900  0.88120000  0.18660000 -0.73100000
O        O    0.75989900  0.38120100  0.68660100 -0.73100000
O        O    0.25990000  0.88120000  0.68660100 -0.73100000
O        O    0.39070100  0.28820000  0.17080000 -0.58700000
O        O    0.89070000  0.78820000  0.17080000 -0.58700000
O        O    0.89070000  0.28820000  0.67079900 -0.58700000
O        O    0.39070100  0.78820000  0.67079900 -0.58700000
O        O    0.27500000  0.38160000  0.13660000 -0.73100000
O        O    0.77500000  0.88160000  0.13660000 -0.73100000
O        O    0.77500000  0.38160000  0.63660000 -0.73100000
O        O    0.27500000  0.88160000  0.63660000 -0.73100000
O        O    0.25680000  0.39850000  0.11840000 -0.73100000
O        O    0.75680000  0.89850000  0.11840000 -0.73100000
O        O    0.75680000  0.39850000  0.61840000 -0.73100000
O        O    0.25680000  0.89850000  0.61840000 -0.73100000
F        F    0.81520000  0.00140044  0.05169970 -0.56600000
F        F    0.31520000  0.50140000  0.05169970 -0.56600000
F        F    0.31520000  0.00140044  0.55170000 -0.56600000
F        F    0.81520000  0.50140000  0.55170000 -0.56600000
C        C    0.40110000  0.32500100  0.16830000  0.11000000
C        C    0.90110000  0.82500000  0.16830000  0.11000000
C        C    0.90110000  0.32500100  0.66830000  0.11000000
C        C    0.40110000  0.82500000  0.66830000  0.11000000
C        C    0.41440000  0.31160000  0.17910000 -0.27400000
C        C    0.91440000  0.81160000  0.17910000 -0.27400000
C        C    0.91440000  0.31160000  0.67910100 -0.27400000
C        C    0.41440000  0.81160000  0.67910100 -0.27400000
C        C    0.40770100  0.29150000  0.17790000  0.84800000
C        C    0.90770000  0.79150100  0.17790000  0.84800000
C        C    0.90770000  0.29150000  0.67790000  0.84800000
C        C    0.40770100  0.79150100  0.67790000  0.84800000
C        C    0.84000000  0.45920000  0.48390000  0.11000000
C        C    0.33999900  0.95919900  0.48390000  0.11000000
C        C    0.33999900  0.45920000  0.98390000  0.11000000
C        C    0.84000000  0.95919900  0.98390000  0.11000000
C        C    0.83660000  0.47249900  0.49740000 -0.27400000
C        C    0.33660100  0.97250000  0.49740000 -0.27400000
C        C    0.33660100  0.47249900  0.99739900 -0.27400000
C        C    0.83660000  0.97250000  0.99739900 -0.27400000
C        C    0.32760000  0.46619900  0.01369990  0.84800000
C        C    0.82760100  0.96620000  0.01369990  0.84800000
C        C    0.82760100  0.46619900  0.51370100  0.84800000
C        C    0.32760000  0.96620000  0.51370100  0.84800000
C        C    0.29690000  0.39810100  0.07740000 -0.27400000
C        C    0.79690100  0.89810000  0.07740000 -0.27400000
C        C    0.79690100  0.39810100  0.57740100 -0.27400000
C        C    0.29690000  0.89810000  0.57740100 -0.27400000
C        C    0.28110000  0.39490100  0.08850060  0.11000000
C        C    0.78109900  0.89490000  0.08850060  0.11000000
C        C    0.78109900  0.39490100  0.58850000  0.11000000
C        C    0.28110000  0.89490000  0.58850000  0.11000000
C        C    0.28440000  0.38610000  0.10659900 -0.27400000
C        C    0.78440000  0.88609900  0.10659900 -0.27400000
C        C    0.78440000  0.38610000  0.60660000 -0.27400000
C        C    0.28440000  0.88609900  0.60660000 -0.27400000
C        C    0.30289900  0.37980000  0.11160000  0.11000000
C        C    0.80290000  0.87980000  0.11160000  0.11000000
C        C    0.80290000  0.37980000  0.61160000  0.11000000
C        C    0.30289900  0.87980000  0.61160000  0.11000000
C        C    0.31750100  0.38010100  0.09780030 -0.27400000
C        C    0.81750000  0.88010000  0.09780030 -0.27400000
C        C    0.81750000  0.38010100  0.59780000 -0.27400000
C        C    0.31750100  0.88010000  0.59780000 -0.27400000
C        C    0.31270000  0.38620000  0.07970020  0.11000000
C        C    0.81270100  0.88620000  0.07970020  0.11000000
C        C    0.81270100  0.38620000  0.57970000  0.11000000
C        C    0.31270000  0.88620000  0.57970000  0.11000000
C        C    0.33630000  0.37300000  0.10129900  0.84800000
C        C    0.83629900  0.87300000  0.10129900  0.84800000
C        C    0.83629900  0.37300000  0.60130000  0.84800000
C        C    0.33630000  0.87300000  0.60130000  0.84800000
C        C    0.27170000  0.38920000  0.12149900  0.84800000
C        C    0.77170000  0.88920100  0.12149900  0.84800000
C        C    0.77170000  0.38920000  0.62150000  0.84800000
C        C    0.27170000  0.88920100  0.62150000  0.84800000
C        C    0.29760000  0.41140000  0.06270020  0.84800000
C        C    0.79760000  0.91140100  0.06270020  0.84800000
C        C    0.79760000  0.41140000  0.56269900  0.84800000
C        C    0.29760000  0.91140100  0.56269900  0.84800000
C        C    0.26530000  0.46089900  0.12880100 -0.27400000
C        C    0.76530000  0.96090000  0.12880100 -0.27400000
C        C    0.76530000  0.46089900  0.62880000 -0.27400000
C        C    0.26530000  0.96090000  0.62880000 -0.27400000
C        C    0.26760000  0.45930000  0.10659900  0.11000000
C        C    0.76760000  0.95929900  0.10659900  0.11000000
C        C    0.76760000  0.45930000  0.60660000  0.11000000
C        C    0.26760000  0.95929900  0.60660000  0.11000000
C        C    0.24950000  0.38960100  0.19810000  0.84800000
C        C    0.74950000  0.88960000  0.19810000  0.84800000
C        C    0.74950000  0.38960100  0.69810000  0.84800000
C        C    0.24950000  0.88960000  0.69810000  0.84800000
H        H    0.36789200  0.42943300  0.06800840  0.10000000
H        H    0.86789200  0.92943400  0.06800840  0.10000000
H        H    0.86789200  0.42943300  0.56800900  0.10000000
H        H    0.36789200  0.92943400  0.56800900  0.10000000
H        H    0.35095500  0.48306100  0.08332410  0.10000000
H        H    0.85095400  0.98306000  0.08332410  0.10000000
H        H    0.85095400  0.48306100  0.58332500  0.10000000
H        H    0.35095500  0.98306000  0.58332500  0.10000000
H        H    0.42780300  0.36328600  0.16776900  0.10000000
H        H    0.92780400  0.86328600  0.16776900  0.10000000
H        H    0.92780400  0.36328600  0.66776800  0.10000000
H        H    0.42780300  0.86328600  0.66776800  0.10000000
H        H    0.44422000  0.37526000  0.12611200  0.10000000
H        H    0.94422000  0.87526100  0.12611200  0.10000000
H        H    0.94422000  0.37526000  0.62611200  0.10000000
H        H    0.44422000  0.87526100  0.62611200  0.10000000
H        H    0.84073000  0.44408200  0.48782700  0.10000000
H        H    0.34072900  0.94408300  0.48782700  0.10000000
H        H    0.34072900  0.44408200  0.98782700  0.10000000
H        H    0.84073000  0.94408300  0.98782700  0.10000000
H        H    0.26007200  0.44914700  0.09916100  0.10000000
H        H    0.76007100  0.94914800  0.09916100  0.10000000
H        H    0.76007100  0.44914700  0.59916000  0.10000000
H        H    0.26007200  0.94914800  0.59916000  0.10000000
Cr       Cr   0.44520000  0.27260000  0.04659990  1.85900000
Cr       Cr   0.94520000  0.77259900  0.04659990  1.85900000
Cr       Cr   0.94520000  0.27260000  0.54660100  1.85900000
Cr       Cr   0.44520000  0.77259900  0.54660100  1.85900000
Cr       Cr   0.48640000  0.36969900  0.16000000  1.85900000
Cr       Cr   0.98640000  0.86970000  0.16000000  1.85900000
Cr       Cr   0.98640000  0.36969900  0.66000100  1.85900000
Cr       Cr   0.48640000  0.86970000  0.66000100  1.85900000
O        O    0.90430000  0.31710000  0.45630000 -0.73100000
O        O    0.40430000  0.81709900  0.45630000 -0.73100000
O        O    0.40430000  0.31710000  0.95630000 -0.73100000
O        O    0.90430000  0.81709900  0.95630000 -0.73100000
O        O    0.88470000  0.33560100  0.43500000 -0.73100000
O        O    0.38470000  0.83560000  0.43500000 -0.73100000
O        O    0.38470000  0.33560100  0.93500000 -0.73100000
O        O    0.88470000  0.83560000  0.93500000 -0.73100000
O        O    0.40170000  0.37650000  0.08850060 -0.58700000
O        O    0.90170000  0.87649900  0.08850060 -0.58700000
O        O    0.90170000  0.37650000  0.58850000 -0.58700000
O        O    0.40170000  0.87649900  0.58850000 -0.58700000
O        O    0.37160100  0.39990000  0.15130000 -0.73100000
O        O    0.87160000  0.89989900  0.15130000 -0.73100000
O        O    0.87160000  0.39990000  0.65130000 -0.73100000
O        O    0.37160100  0.89989900  0.65130000 -0.73100000
O        O    0.40960000  0.38460000  0.11610100 -0.73100000
O        O    0.90960000  0.88460000  0.11610100 -0.73100000
O        O    0.90960000  0.38460000  0.61610000 -0.73100000
O        O    0.40960000  0.88460000  0.61610000 -0.73100000
O        O    0.42360100  0.30090000  0.01769960 -0.58700000
O        O    0.92360000  0.80090000  0.01769960 -0.58700000
O        O    0.92360000  0.30090000  0.51770000 -0.58700000
O        O    0.42360100  0.80090000  0.51770000 -0.58700000
O        O    0.43859900  0.33910000  0.05189990 -0.58700000
O        O    0.93860000  0.83910000  0.05189990 -0.58700000
O        O    0.93860000  0.33910000  0.55190100 -0.58700000
O        O    0.43859900  0.83910000  0.55190100 -0.58700000
O        O    0.42760000  0.27200100  0.02660010 -0.73100000
O        O    0.92760000  0.77200000  0.02660010 -0.73100000
O        O    0.92760000  0.27200100  0.52659900 -0.73100000
O        O    0.42760000  0.77200000  0.52659900 -0.73100000
O        O    0.02770020  0.28420000  0.48790000 -0.58700000
O        O    0.52769900  0.78420100  0.48790000 -0.58700000
O        O    0.52769900  0.28420000  0.98789900 -0.58700000
O        O    0.02770020  0.78420100  0.98789900 -0.58700000
O        O    0.45380000  0.27470000  0.06979980 -0.73100000
O        O    0.95380100  0.77469900  0.06979980 -0.73100000
O        O    0.95380100  0.27470000  0.56980000 -0.73100000
O        O    0.45380000  0.77469900  0.56980000 -0.73100000
O        O    0.46530000  0.32609900  0.05950010 -0.73100000
O        O    0.96530000  0.82610000  0.05950010 -0.73100000
O        O    0.96530000  0.32609900  0.55949900 -0.73100000
O        O    0.46530000  0.82610000  0.55949900 -0.73100000
O        O    0.50130000  0.34160000  0.19670100 -0.58700000
O        O    0.00130031  0.84159900  0.19670100 -0.58700000
O        O    0.00130031  0.34160000  0.69670000 -0.58700000
O        O    0.50130000  0.84159900  0.69670000 -0.58700000
O        O    0.33020100  0.47260000  0.17970100 -0.73100000
O        O    0.83020000  0.97260000  0.17970100 -0.73100000
O        O    0.83020000  0.47260000  0.67970000 -0.73100000
O        O    0.33020100  0.97260000  0.67970000 -0.73100000
O        O    0.49010000  0.36880000  0.18660000 -0.73100000
O        O    0.99010000  0.86880000  0.18660000 -0.73100000
O        O    0.99010000  0.36880000  0.68660100 -0.73100000
O        O    0.49010000  0.86880000  0.68660100 -0.73100000
O        O    0.35930000  0.46180100  0.17080000 -0.58700000
O        O    0.85930000  0.96180000  0.17080000 -0.58700000
O        O    0.85930000  0.46180100  0.67079900 -0.58700000
O        O    0.35930000  0.96180000  0.67079900 -0.58700000
O        O    0.47500000  0.36840100  0.13660000 -0.73100000
O        O    0.97500100  0.86840000  0.13660000 -0.73100000
O        O    0.97500100  0.36840100  0.63660000 -0.73100000
O        O    0.47500000  0.86840000  0.63660000 -0.73100000
O        O    0.49320000  0.35150100  0.11840000 -0.73100000
O        O    0.99319900  0.85150000  0.11840000 -0.73100000
O        O    0.99319900  0.35150100  0.61840000 -0.73100000
O        O    0.49320000  0.85150000  0.61840000 -0.73100000
C        C    0.34890000  0.42500000  0.16830000  0.11000000
C        C    0.84889900  0.92500000  0.16830000  0.11000000
C        C    0.84889900  0.42500000  0.66830000  0.11000000
C        C    0.34890000  0.92500000  0.66830000  0.11000000
C        C    0.33560100  0.43840100  0.17910000 -0.27400000
C        C    0.83560000  0.93840000  0.17910000 -0.27400000
C        C    0.83560000  0.43840100  0.67910100 -0.27400000
C        C    0.33560100  0.93840000  0.67910100 -0.27400000
C        C    0.34230000  0.45850100  0.17790000  0.84800000
C        C    0.84230000  0.95850000  0.17790000  0.84800000
C        C    0.84230000  0.45850100  0.67790000  0.84800000
C        C    0.34230000  0.95850000  0.67790000  0.84800000
C        C    0.91000000  0.29080000  0.48390000  0.11000000
C        C    0.40999900  0.79080000  0.48390000  0.11000000
C        C    0.40999900  0.29080000  0.98390000  0.11000000
C        C    0.91000000  0.79080000  0.98390000  0.11000000
C        C    0.91340000  0.27750000  0.49740000 -0.27400000
C        C    0.41340000  0.77750000  0.49740000 -0.27400000
C        C    0.41340000  0.27750000  0.99739900 -0.27400000
C        C    0.91340000  0.77750000  0.99739900 -0.27400000
C        C    0.42240000  0.28379900  0.01369990  0.84800000
C        C    0.92240000  0.78380000  0.01369990  0.84800000
C        C    0.92240000  0.28379900  0.51370100  0.84800000
C        C    0.42240000  0.78380000  0.51370100  0.84800000
C        C    0.45310000  0.35190000  0.07740000 -0.27400000
C        C    0.95310000  0.85190000  0.07740000 -0.27400000
C        C    0.95310000  0.35190000  0.57740100 -0.27400000
C        C    0.45310000  0.85190000  0.57740100 -0.27400000
C        C    0.46890000  0.35510000  0.08850060  0.11000000
C        C    0.96890000  0.85510000  0.08850060  0.11000000
C        C    0.96890000  0.35510000  0.58850000  0.11000000
C        C    0.46890000  0.85510000  0.58850000  0.11000000
C        C    0.46560000  0.36390000  0.10659900 -0.27400000
C        C    0.96559900  0.86390000  0.10659900 -0.27400000
C        C    0.96559900  0.36390000  0.60660000 -0.27400000
C        C    0.46560000  0.86390000  0.60660000 -0.27400000
C        C    0.44709900  0.37020000  0.11160000  0.11000000
C        C    0.94710000  0.87019900  0.11160000  0.11000000
C        C    0.94710000  0.37020000  0.61160000  0.11000000
C        C    0.44709900  0.87019900  0.61160000  0.11000000
C        C    0.43250000  0.36990000  0.09780030 -0.27400000
C        C    0.93250000  0.86990000  0.09780030 -0.27400000
C        C    0.93250000  0.36990000  0.59780000 -0.27400000
C        C    0.43250000  0.86990000  0.59780000 -0.27400000
C        C    0.43730100  0.36380000  0.07970020  0.11000000
C        C    0.93730000  0.86379900  0.07970020  0.11000000
C        C    0.93730000  0.36380000  0.57970000  0.11000000
C        C    0.43730100  0.86379900  0.57970000  0.11000000
C        C    0.41370000  0.37699900  0.10129900  0.84800000
C        C    0.91369900  0.87700000  0.10129900  0.84800000
C        C    0.91369900  0.37699900  0.60130000  0.84800000
C        C    0.41370000  0.87700000  0.60130000  0.84800000
C        C    0.47830000  0.36080000  0.12149900  0.84800000
C        C    0.97829900  0.86080000  0.12149900  0.84800000
C        C    0.97829900  0.36080000  0.62150000  0.84800000
C        C    0.47830000  0.86080000  0.62150000  0.84800000
C        C    0.45239900  0.33860000  0.06270020  0.84800000
C        C    0.95240000  0.83860000  0.06270020  0.84800000
C        C    0.95240000  0.33860000  0.56269900  0.84800000
C        C    0.45239900  0.83860000  0.56269900  0.84800000
C        C    0.48470000  0.28909900  0.12880100 -0.27400000
C        C    0.98469900  0.78910000  0.12880100 -0.27400000
C        C    0.98469900  0.28909900  0.62880000 -0.27400000
C        C    0.48470000  0.78910000  0.62880000 -0.27400000
C        C    0.48240000  0.29070000  0.10659900  0.11000000
C        C    0.98240100  0.79069900  0.10659900  0.11000000
C        C    0.98240100  0.29070000  0.60660000  0.11000000
C        C    0.48240000  0.79069900  0.60660000  0.11000000
C        C    0.50050000  0.36040000  0.19810000  0.84800000
C        C    0.00050065  0.86040000  0.19810000  0.84800000
C        C    0.00050065  0.36040000  0.69810000  0.84800000
C        C    0.50050000  0.86040000  0.69810000  0.84800000
H        H    0.38210700  0.32056800  0.06800840  0.10000000
H        H    0.88210800  0.82056700  0.06800840  0.10000000
H        H    0.88210800  0.32056800  0.56800900  0.10000000
H        H    0.38210700  0.82056700  0.56800900  0.10000000
H        H    0.39904600  0.26693900  0.08332410  0.10000000
H        H    0.89904500  0.76693900  0.08332410  0.10000000
H        H    0.89904500  0.26693900  0.58332500  0.10000000
H        H    0.39904600  0.76693900  0.58332500  0.10000000
H        H    0.93803200  0.39551600  0.39617600  0.10000000
H        H    0.43803200  0.89551600  0.39617600  0.10000000
H        H    0.43803200  0.39551600  0.89617700  0.10000000
H        H    0.93803200  0.89551600  0.89617700  0.10000000
H        H    0.32219600  0.38671300  0.16776900  0.10000000
H        H    0.82219600  0.88671400  0.16776900  0.10000000
H        H    0.82219600  0.38671300  0.66776800  0.10000000
H        H    0.32219600  0.88671400  0.66776800  0.10000000
H        H    0.31037600  0.43998900  0.19518800  0.10000000
H        H    0.81037700  0.93999000  0.19518800  0.10000000
H        H    0.81037700  0.43998900  0.69518700  0.10000000
H        H    0.31037600  0.93999000  0.69518700  0.10000000
H        H    0.30578000  0.37473900  0.12611200  0.10000000
H        H    0.80577900  0.87474000  0.12611200  0.10000000
H        H    0.80577900  0.37473900  0.62611200  0.10000000
H        H    0.30578000  0.87474000  0.62611200  0.10000000
H        H    0.90927000  0.30591800  0.48782700  0.10000000
H        H    0.40927000  0.80591800  0.48782700  0.10000000
H        H    0.40927000  0.30591800  0.98782700  0.10000000
H        H    0.90927000  0.80591800  0.98782700  0.10000000
H        H    0.48992900  0.30085300  0.09916100  0.10000000
H        H    0.98992800  0.80085200  0.09916100  0.10000000
H        H    0.98992800  0.30085300  0.59916000  0.10000000
H        H    0.48992900  0.80085200  0.59916000  0.10000000
Cr       Cr   0.80480000  0.27260000  0.20340000  1.62000000
Cr       Cr   0.30480100  0.77259900  0.20340000  1.62000000
Cr       Cr   0.30480100  0.27260000  0.70340000  1.62000000
Cr       Cr   0.80480000  0.77259900  0.70340000  1.62000000
Cr       Cr   0.76360000  0.36969900  0.08999980  1.85900000
Cr       Cr   0.26359900  0.86970000  0.08999980  1.85900000
Cr       Cr   0.26359900  0.36969900  0.59000100  1.85900000
Cr       Cr   0.76360000  0.86970000  0.59000100  1.85900000
O        O    0.84569900  0.31710000  0.29370000 -0.58700000
O        O    0.34570000  0.81709900  0.29370000 -0.58700000
O        O    0.34570000  0.31710000  0.79370100 -0.58700000
O        O    0.84569900  0.81709900  0.79370100 -0.58700000
O        O    0.86530000  0.33560100  0.31500000 -0.58700000
O        O    0.36530100  0.83560000  0.31500000 -0.58700000
O        O    0.36530100  0.33560100  0.81499900 -0.58700000
O        O    0.86530000  0.83560000  0.81499900 -0.58700000
O        O    0.84830000  0.37650000  0.16150000 -0.73100000
O        O    0.34830100  0.87649900  0.16150000 -0.73100000
O        O    0.34830100  0.37650000  0.66150000 -0.73100000
O        O    0.84830000  0.87649900  0.66150000 -0.73100000
O        O    0.87840000  0.39990000  0.09870010 -0.58700000
O        O    0.37840000  0.89989900  0.09870010 -0.58700000
O        O    0.37840000  0.39990000  0.59869900 -0.58700000
O        O    0.87840000  0.89989900  0.59869900 -0.58700000
O        O    0.84040100  0.38460000  0.13390000 -0.58700000
O        O    0.34040000  0.88460000  0.13390000 -0.58700000
O        O    0.34040000  0.38460000  0.63390000 -0.58700000
O        O    0.84040100  0.88460000  0.63390000 -0.58700000
O        O    0.82640000  0.30090000  0.23230000 -0.73100000
O        O    0.32640000  0.80090000  0.23230000 -0.73100000
O        O    0.32640000  0.30090000  0.73229900 -0.73100000
O        O    0.82640000  0.80090000  0.73229900 -0.73100000
O        O    0.81140000  0.33910000  0.19810000 -0.73100000
O        O    0.31140000  0.83910000  0.19810000 -0.73100000
O        O    0.31140000  0.33910000  0.69810000 -0.73100000
O        O    0.81140000  0.83910000  0.69810000 -0.73100000
O        O    0.82239900  0.27200100  0.22340000 -0.58700000
O        O    0.32240000  0.77200000  0.22340000 -0.58700000
O        O    0.32240000  0.27200100  0.72340000 -0.58700000
O        O    0.82239900  0.77200000  0.72340000 -0.58700000
O        O    0.72230000  0.28420000  0.26210000 -0.73100000
O        O    0.22229900  0.78420100  0.26210000 -0.73100000
O        O    0.22229900  0.28420000  0.76210000 -0.73100000
O        O    0.72230000  0.78420100  0.76210000 -0.73100000
O        O    0.79620000  0.27470000  0.18020000 -0.58700000
O        O    0.29620000  0.77469900  0.18020000 -0.58700000
O        O    0.29620000  0.27470000  0.68020100 -0.58700000
O        O    0.79620000  0.77469900  0.68020100 -0.58700000
O        O    0.78470000  0.32609900  0.19050000 -0.73100000
O        O    0.28470100  0.82610000  0.19050000 -0.73100000
O        O    0.28470100  0.32609900  0.69050000 -0.73100000
O        O    0.78470000  0.82610000  0.69050000 -0.73100000
O        O    0.74870000  0.34160000  0.05330040 -0.73100000
O        O    0.24869900  0.84159900  0.05330040 -0.73100000
O        O    0.24869900  0.34160000  0.55330000 -0.73100000
O        O    0.74870000  0.84159900  0.55330000 -0.73100000
O        O    0.91980100  0.47260000  0.07030040 -0.58700000
O        O    0.41980000  0.97260000  0.07030040 -0.58700000
O        O    0.41980000  0.47260000  0.57030000 -0.58700000
O        O    0.91980100  0.97260000  0.57030000 -0.58700000
O        O    0.75989900  0.36880000  0.06339970 -0.73100000
O        O    0.25990000  0.86880000  0.06339970 -0.73100000
O        O    0.25990000  0.36880000  0.56340000 -0.73100000
O        O    0.75989900  0.86880000  0.56340000 -0.73100000
O        O    0.89070000  0.46180100  0.07919960 -0.73100000
O        O    0.39070100  0.96180000  0.07919960 -0.73100000
O        O    0.39070100  0.46180100  0.57920000 -0.73100000
O        O    0.89070000  0.96180000  0.57920000 -0.73100000
O        O    0.77500000  0.36840100  0.11340000 -0.73100000
O        O    0.27500000  0.86840000  0.11340000 -0.73100000
O        O    0.27500000  0.36840100  0.61340100 -0.73100000
O        O    0.77500000  0.86840000  0.61340100 -0.73100000
O        O    0.75680000  0.35150100  0.13160000 -0.58700000
O        O    0.25680000  0.85150000  0.13160000 -0.58700000
O        O    0.25680000  0.35150100  0.63159900 -0.58700000
O        O    0.75680000  0.85150000  0.63159900 -0.58700000
F        F    0.81520000  0.24860100  0.19830000 -0.56600000
F        F    0.31520000  0.74860000  0.19830000 -0.56600000
F        F    0.31520000  0.24860100  0.69829900 -0.56600000
F        F    0.81520000  0.74860000  0.69829900 -0.56600000
C        C    0.90110000  0.42500000  0.08170010  0.11000000
C        C    0.40110000  0.92500000  0.08170010  0.11000000
C        C    0.40110000  0.42500000  0.58169900  0.11000000
C        C    0.90110000  0.92500000  0.58169900  0.11000000
C        C    0.91440000  0.43840100  0.07089980 -0.27400000
C        C    0.41440000  0.93840000  0.07089980 -0.27400000
C        C    0.41440000  0.43840100  0.57090000 -0.27400000
C        C    0.91440000  0.93840000  0.57090000 -0.27400000
C        C    0.90770000  0.45850100  0.07210000  0.84800000
C        C    0.40770100  0.95850000  0.07210000  0.84800000
C        C    0.40770100  0.45850100  0.57210100  0.84800000
C        C    0.90770000  0.95850000  0.57210100  0.84800000
C        C    0.84000000  0.29080000  0.26610000  0.11000000
C        C    0.33999900  0.79080000  0.26610000  0.11000000
C        C    0.33999900  0.29080000  0.76610100  0.11000000
C        C    0.84000000  0.79080000  0.76610100  0.11000000
C        C    0.83660000  0.27750000  0.25260000 -0.27400000
C        C    0.33660100  0.77750000  0.25260000 -0.27400000
C        C    0.33660100  0.27750000  0.75260000 -0.27400000
C        C    0.83660000  0.77750000  0.75260000 -0.27400000
C        C    0.82760100  0.28379900  0.23630000  0.84800000
C        C    0.32760000  0.78380000  0.23630000  0.84800000
C        C    0.32760000  0.28379900  0.73630000  0.84800000
C        C    0.82760100  0.78380000  0.73630000  0.84800000
C        C    0.79690100  0.35190000  0.17260000 -0.27400000
C        C    0.29690000  0.85190000  0.17260000 -0.27400000
C        C    0.29690000  0.35190000  0.67260000 -0.27400000
C        C    0.79690100  0.85190000  0.67260000 -0.27400000
C        C    0.78109900  0.35510000  0.16150000  0.11000000
C        C    0.28110000  0.85510000  0.16150000  0.11000000
C        C    0.28110000  0.35510000  0.66150000  0.11000000
C        C    0.78109900  0.85510000  0.66150000  0.11000000
C        C    0.78440000  0.36390000  0.14340000 -0.27400000
C        C    0.28440000  0.86390000  0.14340000 -0.27400000
C        C    0.28440000  0.36390000  0.64340000 -0.27400000
C        C    0.78440000  0.86390000  0.64340000 -0.27400000
C        C    0.80290000  0.37020000  0.13839900  0.11000000
C        C    0.30289900  0.87019900  0.13839900  0.11000000
C        C    0.30289900  0.37020000  0.63840000  0.11000000
C        C    0.80290000  0.87019900  0.63840000  0.11000000
C        C    0.81750000  0.36990000  0.15219900 -0.27400000
C        C    0.31750100  0.86990000  0.15219900 -0.27400000
C        C    0.31750100  0.36990000  0.65220000 -0.27400000
C        C    0.81750000  0.86990000  0.65220000 -0.27400000
C        C    0.81270100  0.36380000  0.17029900  0.11000000
C        C    0.31270000  0.86379900  0.17029900  0.11000000
C        C    0.31270000  0.36380000  0.67030000  0.11000000
C        C    0.81270100  0.86379900  0.67030000  0.11000000
C        C    0.83629900  0.37699900  0.14870000  0.84800000
C        C    0.33630000  0.87700000  0.14870000  0.84800000
C        C    0.33630000  0.37699900  0.64870000  0.84800000
C        C    0.83629900  0.87700000  0.64870000  0.84800000
C        C    0.77170000  0.36080000  0.12850000  0.84800000
C        C    0.27170000  0.86080000  0.12850000  0.84800000
C        C    0.27170000  0.36080000  0.62850000  0.84800000
C        C    0.77170000  0.86080000  0.62850000  0.84800000
C        C    0.79760000  0.33860000  0.18729900  0.84800000
C        C    0.29760000  0.83860000  0.18729900  0.84800000
C        C    0.29760000  0.33860000  0.68730000  0.84800000
C        C    0.79760000  0.83860000  0.68730000  0.84800000
C        C    0.76530000  0.28909900  0.12120000 -0.27400000
C        C    0.26530000  0.78910000  0.12120000 -0.27400000
C        C    0.26530000  0.28909900  0.62120000 -0.27400000
C        C    0.76530000  0.78910000  0.62120000 -0.27400000
C        C    0.76760000  0.29070000  0.14340000  0.11000000
C        C    0.26760000  0.79069900  0.14340000  0.11000000
C        C    0.26760000  0.29070000  0.64340000  0.11000000
C        C    0.76760000  0.79069900  0.64340000  0.11000000
C        C    0.74950000  0.36040000  0.05189990  0.84800000
C        C    0.24950000  0.86040000  0.05189990  0.84800000
C        C    0.24950000  0.36040000  0.55190100  0.84800000
C        C    0.74950000  0.86040000  0.55190100  0.84800000
H        H    0.86789200  0.32056800  0.18199100  0.10000000
H        H    0.36789200  0.82056700  0.18199100  0.10000000
H        H    0.36789200  0.32056800  0.68199200  0.10000000
H        H    0.86789200  0.82056700  0.68199200  0.10000000
H        H    0.85095400  0.26693900  0.16667600  0.10000000
H        H    0.35095500  0.76693900  0.16667600  0.10000000
H        H    0.35095500  0.26693900  0.66667600  0.10000000
H        H    0.85095400  0.76693900  0.66667600  0.10000000
H        H    0.81196800  0.39551600  0.35382300  0.10000000
H        H    0.31196900  0.89551600  0.35382300  0.10000000
H        H    0.31196900  0.39551600  0.85382400  0.10000000
H        H    0.81196800  0.89551600  0.85382400  0.10000000
H        H    0.92780400  0.38671300  0.08223090  0.10000000
H        H    0.42780300  0.88671400  0.08223090  0.10000000
H        H    0.42780300  0.38671300  0.58223200  0.10000000
H        H    0.92780400  0.88671400  0.58223200  0.10000000
H        H    0.94422000  0.37473900  0.12388700  0.10000000
H        H    0.44422000  0.87474000  0.12388700  0.10000000
H        H    0.44422000  0.37473900  0.62388800  0.10000000
H        H    0.94422000  0.87474000  0.62388800  0.10000000
H        H    0.84073000  0.30591800  0.26217300  0.10000000
H        H    0.34072900  0.80591800  0.26217300  0.10000000
H        H    0.34072900  0.30591800  0.76217200  0.10000000
H        H    0.84073000  0.80591800  0.76217200  0.10000000
H        H    0.76007100  0.30085300  0.15084000  0.10000000
H        H    0.26007200  0.80085200  0.15084000  0.10000000
H        H    0.26007200  0.30085300  0.65083900  0.10000000
H        H    0.76007100  0.80085200  0.65083900  0.10000000
Cr       Cr   0.94520000  0.47740000  0.20340000  1.62000000
Cr       Cr   0.44520000  0.97740000  0.20340000  1.62000000
Cr       Cr   0.44520000  0.47740000  0.70340000  1.62000000
Cr       Cr   0.94520000  0.97740000  0.70340000  1.62000000
Cr       Cr   0.98640000  0.38029900  0.08999980  1.62000000
Cr       Cr   0.48640000  0.88030000  0.08999980  1.62000000
Cr       Cr   0.48640000  0.38029900  0.59000100  1.62000000
Cr       Cr   0.98640000  0.88030000  0.59000100  1.62000000
O        O    0.90430000  0.43290000  0.29370000 -0.58700000
O        O    0.40430000  0.93290000  0.29370000 -0.58700000
O        O    0.40430000  0.43290000  0.79370100 -0.58700000
O        O    0.90430000  0.93290000  0.79370100 -0.58700000
O        O    0.88470000  0.41440000  0.31500000 -0.58700000
O        O    0.38470000  0.91440000  0.31500000 -0.58700000
O        O    0.38470000  0.41440000  0.81499900 -0.58700000
O        O    0.88470000  0.91440000  0.81499900 -0.58700000
O        O    0.90170000  0.37350000  0.16150000 -0.73100000
O        O    0.40170000  0.87350000  0.16150000 -0.73100000
O        O    0.40170000  0.37350000  0.66150000 -0.73100000
O        O    0.90170000  0.87350000  0.66150000 -0.73100000
O        O    0.87160000  0.35010000  0.09870010 -0.73100000
O        O    0.37160100  0.85010000  0.09870010 -0.73100000
O        O    0.37160100  0.35010000  0.59869900 -0.73100000
O        O    0.87160000  0.85010000  0.59869900 -0.73100000
O        O    0.90960000  0.36539900  0.13390000 -0.73100000
O        O    0.40960000  0.86540000  0.13390000 -0.73100000
O        O    0.40960000  0.36539900  0.63390000 -0.73100000
O        O    0.90960000  0.86540000  0.63390000 -0.73100000
O        O    0.92360000  0.44910100  0.23230000 -0.73100000
O        O    0.42360100  0.94910000  0.23230000 -0.73100000
O        O    0.42360100  0.44910100  0.73229900 -0.73100000
O        O    0.92360000  0.94910000  0.73229900 -0.73100000
O        O    0.93860000  0.41090100  0.19810000 -0.73100000
O        O    0.43859900  0.91090000  0.19810000 -0.73100000
O        O    0.43859900  0.41090100  0.69810000 -0.73100000
O        O    0.93860000  0.91090000  0.69810000 -0.73100000
O        O    0.92760000  0.47800000  0.22340000 -0.58700000
O        O    0.42760000  0.97800000  0.22340000 -0.58700000
O        O    0.42760000  0.47800000  0.72340000 -0.58700000
O        O    0.92760000  0.97800000  0.72340000 -0.58700000
O        O    0.02770020  0.46580000  0.26210000 -0.73100000
O        O    0.52769900  0.96580000  0.26210000 -0.73100000
O        O    0.52769900  0.46580000  0.76210000 -0.73100000
O        O    0.02770020  0.96580000  0.76210000 -0.73100000
O        O    0.95380100  0.47530000  0.18020000 -0.58700000
O        O    0.45380000  0.97530000  0.18020000 -0.58700000
O        O    0.45380000  0.47530000  0.68020100 -0.58700000
O        O    0.95380100  0.97530000  0.68020100 -0.58700000
O        O    0.96530000  0.42390000  0.19050000 -0.73100000
O        O    0.46530000  0.92390000  0.19050000 -0.73100000
O        O    0.46530000  0.42390000  0.69050000 -0.73100000
O        O    0.96530000  0.92390000  0.69050000 -0.73100000
O        O    0.00130031  0.40840000  0.05330040 -0.73100000
O        O    0.50130000  0.90839900  0.05330040 -0.73100000
O        O    0.50130000  0.40840000  0.55330000 -0.73100000
O        O    0.00130031  0.90839900  0.55330000 -0.73100000
O        O    0.83020000  0.27739900  0.07030040 -0.58700000
O        O    0.33020100  0.77740000  0.07030040 -0.58700000
O        O    0.33020100  0.27739900  0.57030000 -0.58700000
O        O    0.83020000  0.77740000  0.57030000 -0.58700000
O        O    0.99010000  0.38120100  0.06339970 -0.58700000
O        O    0.49010000  0.88120000  0.06339970 -0.58700000
O        O    0.49010000  0.38120100  0.56340000 -0.58700000
O        O    0.99010000  0.88120000  0.56340000 -0.58700000
O        O    0.85930000  0.28820000  0.07919960 -0.73100000
O        O    0.35930000  0.78820000  0.07919960 -0.73100000
O        O    0.35930000  0.28820000  0.57920000 -0.73100000
O        O    0.85930000  0.78820000  0.57920000 -0.73100000
O        O    0.97500100  0.38160000  0.11340000 -0.58700000
O        O    0.47500000  0.88160000  0.11340000 -0.58700000
O        O    0.47500000  0.38160000  0.61340100 -0.58700000
O        O    0.97500100  0.88160000  0.61340100 -0.58700000
O        O    0.99319900  0.39850000  0.13160000 -0.73100000
O        O    0.49320000  0.89850000  0.13160000 -0.73100000
O        O    0.49320000  0.39850000  0.63159900 -0.73100000
O        O    0.99319900  0.89850000  0.63159900 -0.73100000
F        F    0.43480000  0.00140044  0.19830000 -0.56600000
F        F    0.93480100  0.50140000  0.19830000 -0.56600000
F        F    0.93480100  0.00140044  0.69829900 -0.56600000
F        F    0.43480000  0.50140000  0.69829900 -0.56600000
F        F    0.97570000  0.35750000  0.08449960 -0.56600000
F        F    0.47569900  0.85749900  0.08449960 -0.56600000
F        F    0.47569900  0.35750000  0.58450000 -0.56600000
F        F    0.97570000  0.85749900  0.58450000 -0.56600000
C        C    0.84889900  0.32500100  0.08170010  0.11000000
C        C    0.34890000  0.82500000  0.08170010  0.11000000
C        C    0.34890000  0.32500100  0.58169900  0.11000000
C        C    0.84889900  0.82500000  0.58169900  0.11000000
C        C    0.83560000  0.31160000  0.07089980 -0.27400000
C        C    0.33560100  0.81160000  0.07089980 -0.27400000
C        C    0.33560100  0.31160000  0.57090000 -0.27400000
C        C    0.83560000  0.81160000  0.57090000 -0.27400000
C        C    0.84230000  0.29150000  0.07210000  0.84800000
C        C    0.34230000  0.79150100  0.07210000  0.84800000
C        C    0.34230000  0.29150000  0.57210100  0.84800000
C        C    0.84230000  0.79150100  0.57210100  0.84800000
C        C    0.91000000  0.45920000  0.26610000  0.11000000
C        C    0.40999900  0.95919900  0.26610000  0.11000000
C        C    0.40999900  0.45920000  0.76610100  0.11000000
C        C    0.91000000  0.95919900  0.76610100  0.11000000
C        C    0.91340000  0.47249900  0.25260000 -0.27400000
C        C    0.41340000  0.97250000  0.25260000 -0.27400000
C        C    0.41340000  0.47249900  0.75260000 -0.27400000
C        C    0.91340000  0.97250000  0.75260000 -0.27400000
C        C    0.92240000  0.46619900  0.23630000  0.84800000
C        C    0.42240000  0.96620000  0.23630000  0.84800000
C        C    0.42240000  0.46619900  0.73630000  0.84800000
C        C    0.92240000  0.96620000  0.73630000  0.84800000
C        C    0.95310000  0.39810100  0.17260000 -0.27400000
C        C    0.45310000  0.89810000  0.17260000 -0.27400000
C        C    0.45310000  0.39810100  0.67260000 -0.27400000
C        C    0.95310000  0.89810000  0.67260000 -0.27400000
C        C    0.96890000  0.39490100  0.16150000  0.11000000
C        C    0.46890000  0.89490000  0.16150000  0.11000000
C        C    0.46890000  0.39490100  0.66150000  0.11000000
C        C    0.96890000  0.89490000  0.66150000  0.11000000
C        C    0.96559900  0.38610000  0.14340000 -0.27400000
C        C    0.46560000  0.88609900  0.14340000 -0.27400000
C        C    0.46560000  0.38610000  0.64340000 -0.27400000
C        C    0.96559900  0.88609900  0.64340000 -0.27400000
C        C    0.94710000  0.37980000  0.13839900  0.11000000
C        C    0.44709900  0.87980000  0.13839900  0.11000000
C        C    0.44709900  0.37980000  0.63840000  0.11000000
C        C    0.94710000  0.87980000  0.63840000  0.11000000
C        C    0.93250000  0.38010100  0.15219900 -0.27400000
C        C    0.43250000  0.88010000  0.15219900 -0.27400000
C        C    0.43250000  0.38010100  0.65220000 -0.27400000
C        C    0.93250000  0.88010000  0.65220000 -0.27400000
C        C    0.93730000  0.38620000  0.17029900  0.11000000
C        C    0.43730100  0.88620000  0.17029900  0.11000000
C        C    0.43730100  0.38620000  0.67030000  0.11000000
C        C    0.93730000  0.88620000  0.67030000  0.11000000
C        C    0.91369900  0.37300000  0.14870000  0.84800000
C        C    0.41370000  0.87300000  0.14870000  0.84800000
C        C    0.41370000  0.37300000  0.64870000  0.84800000
C        C    0.91369900  0.87300000  0.64870000  0.84800000
C        C    0.97829900  0.38920000  0.12850000  0.84800000
C        C    0.47830000  0.88920100  0.12850000  0.84800000
C        C    0.47830000  0.38920000  0.62850000  0.84800000
C        C    0.97829900  0.88920100  0.62850000  0.84800000
C        C    0.95240000  0.41140000  0.18729900  0.84800000
C        C    0.45239900  0.91140100  0.18729900  0.84800000
C        C    0.45239900  0.41140000  0.68730000  0.84800000
C        C    0.95240000  0.91140100  0.68730000  0.84800000
C        C    0.98469900  0.46089900  0.12120000 -0.27400000
C        C    0.48470000  0.96090000  0.12120000 -0.27400000
C        C    0.48470000  0.46089900  0.62120000 -0.27400000
C        C    0.98469900  0.96090000  0.62120000 -0.27400000
C        C    0.98240100  0.45930000  0.14340000  0.11000000
C        C    0.48240000  0.95929900  0.14340000  0.11000000
C        C    0.48240000  0.45930000  0.64340000  0.11000000
C        C    0.98240100  0.95929900  0.64340000  0.11000000
C        C    0.00050065  0.38960100  0.05189990  0.84800000
C        C    0.50050000  0.88960000  0.05189990  0.84800000
C        C    0.50050000  0.38960100  0.55190100  0.84800000
C        C    0.00050065  0.88960000  0.55190100  0.84800000
H        H    0.88210800  0.42943300  0.18199100  0.10000000
H        H    0.38210700  0.92943400  0.18199100  0.10000000
H        H    0.38210700  0.42943300  0.68199200  0.10000000
H        H    0.88210800  0.92943400  0.68199200  0.10000000
H        H    0.89904500  0.48306100  0.16667600  0.10000000
H        H    0.39904600  0.98306000  0.16667600  0.10000000
H        H    0.39904600  0.48306100  0.66667600  0.10000000
H        H    0.89904500  0.98306000  0.66667600  0.10000000
H        H    0.82219600  0.36328600  0.08223090  0.10000000
H        H    0.32219600  0.86328600  0.08223090  0.10000000
H        H    0.32219600  0.36328600  0.58223200  0.10000000
H        H    0.82219600  0.86328600  0.58223200  0.10000000
H        H    0.80577900  0.37526000  0.12388700  0.10000000
H        H    0.30578000  0.87526100  0.12388700  0.10000000
H        H    0.30578000  0.37526000  0.62388800  0.10000000
H        H    0.80577900  0.87526100  0.62388800  0.10000000
H        H    0.90927000  0.44408200  0.26217300  0.10000000
H        H    0.40927000  0.94408300  0.26217300  0.10000000
H        H    0.40927000  0.44408200  0.76217200  0.10000000
H        H    0.90927000  0.94408300  0.76217200  0.10000000
H        H    0.98992800  0.44914700  0.15084000  0.10000000
H        H    0.48992900  0.94914800  0.15084000  0.10000000
H        H    0.48992900  0.44914700  0.65083900  0.10000000
H        H    0.98992800  0.94914800  0.65083900  0.10000000
Cr       Cr   0.97740000  0.20340000  0.44520000  1.85900000
Cr       Cr   0.47740000  0.70340000  0.44520000  1.85900000
Cr       Cr   0.47740000  0.20340000  0.94520000  1.85900000
Cr       Cr   0.97740000  0.70340000  0.94520000  1.85900000
Cr       Cr   0.88030000  0.08999980  0.48640000  1.62000000
Cr       Cr   0.38029900  0.59000100  0.48640000  1.62000000
Cr       Cr   0.38029900  0.08999980  0.98640000  1.62000000
Cr       Cr   0.88030000  0.59000100  0.98640000  1.62000000
O        O    0.93290000  0.29370000  0.40430000 -0.73100000
O        O    0.43290000  0.79370100  0.40430000 -0.73100000
O        O    0.43290000  0.29370000  0.90430000 -0.73100000
O        O    0.93290000  0.79370100  0.90430000 -0.73100000
O        O    0.91440000  0.31500000  0.38470000 -0.73100000
O        O    0.41440000  0.81499900  0.38470000 -0.73100000
O        O    0.41440000  0.31500000  0.88470000 -0.73100000
O        O    0.91440000  0.81499900  0.88470000 -0.73100000
O        O    0.87350000  0.16150000  0.40170000 -0.73100000
O        O    0.37350000  0.66150000  0.40170000 -0.73100000
O        O    0.37350000  0.16150000  0.90170000 -0.73100000
O        O    0.87350000  0.66150000  0.90170000 -0.73100000
O        O    0.85010000  0.09870010  0.37160100 -0.73100000
O        O    0.35010000  0.59869900  0.37160100 -0.73100000
O        O    0.35010000  0.09870010  0.87160000 -0.73100000
O        O    0.85010000  0.59869900  0.87160000 -0.73100000
O        O    0.86540000  0.13390000  0.40960000 -0.73100000
O        O    0.36539900  0.63390000  0.40960000 -0.73100000
O        O    0.36539900  0.13390000  0.90960000 -0.73100000
O        O    0.86540000  0.63390000  0.90960000 -0.73100000
O        O    0.94910000  0.23230000  0.42360100 -0.73100000
O        O    0.44910100  0.73229900  0.42360100 -0.73100000
O        O    0.44910100  0.23230000  0.92360000 -0.73100000
O        O    0.94910000  0.73229900  0.92360000 -0.73100000
O        O    0.91090000  0.19810000  0.43859900 -0.73100000
O        O    0.41090100  0.69810000  0.43859900 -0.73100000
O        O    0.41090100  0.19810000  0.93860000 -0.73100000
O        O    0.91090000  0.69810000  0.93860000 -0.73100000
O        O    0.97800000  0.22340000  0.42760000 -0.73100000
O        O    0.47800000  0.72340000  0.42760000 -0.73100000
O        O    0.47800000  0.22340000  0.92760000 -0.73100000
O        O    0.97800000  0.72340000  0.92760000 -0.73100000
O        O    0.46580000  0.26210000  0.02770020 -0.73100000
O        O    0.96580000  0.76210000  0.02770020 -0.73100000
O        O    0.96580000  0.26210000  0.52769900 -0.73100000
O        O    0.46580000  0.76210000  0.52769900 -0.73100000
O        O    0.97530000  0.18020000  0.45380000 -0.73100000
O        O    0.47530000  0.68020100  0.45380000 -0.73100000
O        O    0.47530000  0.18020000  0.95380100 -0.73100000
O        O    0.97530000  0.68020100  0.95380100 -0.73100000
O        O    0.92390000  0.19050000  0.46530000 -0.58700000
O        O    0.42390000  0.69050000  0.46530000 -0.58700000
O        O    0.42390000  0.19050000  0.96530000 -0.58700000
O        O    0.92390000  0.69050000  0.96530000 -0.58700000
O        O    0.40840000  0.05330040  0.00130031 -0.73100000
O        O    0.90839900  0.55330000  0.00130031 -0.73100000
O        O    0.90839900  0.05330040  0.50130000 -0.73100000
O        O    0.40840000  0.55330000  0.50130000 -0.73100000
O        O    0.77740000  0.07030040  0.33020100 -0.73100000
O        O    0.27739900  0.57030000  0.33020100 -0.73100000
O        O    0.27739900  0.07030040  0.83020000 -0.73100000
O        O    0.77740000  0.57030000  0.83020000 -0.73100000
O        O    0.88120000  0.06339970  0.49010000 -0.58700000
O        O    0.38120100  0.56340000  0.49010000 -0.58700000
O        O    0.38120100  0.06339970  0.99010000 -0.58700000
O        O    0.88120000  0.56340000  0.99010000 -0.58700000
O        O    0.78820000  0.07919960  0.35930000 -0.73100000
O        O    0.28820000  0.57920000  0.35930000 -0.73100000
O        O    0.28820000  0.07919960  0.85930000 -0.73100000
O        O    0.78820000  0.57920000  0.85930000 -0.73100000
O        O    0.88160000  0.11340000  0.47500000 -0.58700000
O        O    0.38160000  0.61340100  0.47500000 -0.58700000
O        O    0.38160000  0.11340000  0.97500100 -0.58700000
O        O    0.88160000  0.61340100  0.97500100 -0.58700000
O        O    0.89850000  0.13160000  0.49320000 -0.73100000
O        O    0.39850000  0.63159900  0.49320000 -0.73100000
O        O    0.39850000  0.13160000  0.99319900 -0.73100000
O        O    0.89850000  0.63159900  0.99319900 -0.73100000
F        F    0.85749900  0.08449960  0.47569900 -0.56600000
F        F    0.35750000  0.58450000  0.47569900 -0.56600000
F        F    0.35750000  0.08449960  0.97570000 -0.56600000
F        F    0.85749900  0.58450000  0.97570000 -0.56600000
C        C    0.82500000  0.08170010  0.34890000  0.11000000
C        C    0.32500100  0.58169900  0.34890000  0.11000000
C        C    0.32500100  0.08170010  0.84889900  0.11000000
C        C    0.82500000  0.58169900  0.84889900  0.11000000
C        C    0.81160000  0.07089980  0.33560100 -0.27400000
C        C    0.31160000  0.57090000  0.33560100 -0.27400000
C        C    0.31160000  0.07089980  0.83560000 -0.27400000
C        C    0.81160000  0.57090000  0.83560000 -0.27400000
C        C    0.79150100  0.07210000  0.34230000  0.84800000
C        C    0.29150000  0.57210100  0.34230000  0.84800000
C        C    0.29150000  0.07210000  0.84230000  0.84800000
C        C    0.79150100  0.57210100  0.84230000  0.84800000
C        C    0.95919900  0.26610000  0.40999900  0.11000000
C        C    0.45920000  0.76610100  0.40999900  0.11000000
C        C    0.45920000  0.26610000  0.91000000  0.11000000
C        C    0.95919900  0.76610100  0.91000000  0.11000000
C        C    0.97250000  0.25260000  0.41340000 -0.27400000
C        C    0.47249900  0.75260000  0.41340000 -0.27400000
C        C    0.47249900  0.25260000  0.91340000 -0.27400000
C        C    0.97250000  0.75260000  0.91340000 -0.27400000
C        C    0.96620000  0.23630000  0.42240000  0.84800000
C        C    0.46619900  0.73630000  0.42240000  0.84800000
C        C    0.46619900  0.23630000  0.92240000  0.84800000
C        C    0.96620000  0.73630000  0.92240000  0.84800000
C        C    0.89810000  0.17260000  0.45310000 -0.27400000
C        C    0.39810100  0.67260000  0.45310000 -0.27400000
C        C    0.39810100  0.17260000  0.95310000 -0.27400000
C        C    0.89810000  0.67260000  0.95310000 -0.27400000
C        C    0.89490000  0.16150000  0.46890000  0.11000000
C        C    0.39490100  0.66150000  0.46890000  0.11000000
C        C    0.39490100  0.16150000  0.96890000  0.11000000
C        C    0.89490000  0.66150000  0.96890000  0.11000000
C        C    0.88609900  0.14340000  0.46560000 -0.27400000
C        C    0.38610000  0.64340000  0.46560000 -0.27400000
C        C    0.38610000  0.14340000  0.96559900 -0.27400000
C        C    0.88609900  0.64340000  0.96559900 -0.27400000
C        C    0.87980000  0.13839900  0.44709900  0.11000000
C        C    0.37980000  0.63840000  0.44709900  0.11000000
C        C    0.37980000  0.13839900  0.94710000  0.11000000
C        C    0.87980000  0.63840000  0.94710000  0.11000000
C        C    0.88010000  0.15219900  0.43250000 -0.27400000
C        C    0.38010100  0.65220000  0.43250000 -0.27400000
C        C    0.38010100  0.15219900  0.93250000 -0.27400000
C        C    0.88010000  0.65220000  0.93250000 -0.27400000
C        C    0.88620000  0.17029900  0.43730100  0.11000000
C        C    0.38620000  0.67030000  0.43730100  0.11000000
C        C    0.38620000  0.17029900  0.93730000  0.11000000
C        C    0.88620000  0.67030000  0.93730000  0.11000000
C        C    0.87300000  0.14870000  0.41370000  0.84800000
C        C    0.37300000  0.64870000  0.41370000  0.84800000
C        C    0.37300000  0.14870000  0.91369900  0.84800000
C        C    0.87300000  0.64870000  0.91369900  0.84800000
C        C    0.88920100  0.12850000  0.47830000  0.84800000
C        C    0.38920000  0.62850000  0.47830000  0.84800000
C        C    0.38920000  0.12850000  0.97829900  0.84800000
C        C    0.88920100  0.62850000  0.97829900  0.84800000
C        C    0.91140100  0.18729900  0.45239900  0.84800000
C        C    0.41140000  0.68730000  0.45239900  0.84800000
C        C    0.41140000  0.18729900  0.95240000  0.84800000
C        C    0.91140100  0.68730000  0.95240000  0.84800000
C        C    0.96090000  0.12120000  0.48470000 -0.27400000
C        C    0.46089900  0.62120000  0.48470000 -0.27400000
C        C    0.46089900  0.12120000  0.98469900 -0.27400000
C        C    0.96090000  0.62120000  0.98469900 -0.27400000
C        C    0.95929900  0.14340000  0.48240000  0.11000000
C        C    0.45930000  0.64340000  0.48240000  0.11000000
C        C    0.45930000  0.14340000  0.98240100  0.11000000
C        C    0.95929900  0.64340000  0.98240100  0.11000000
C        C    0.38960100  0.05189990  0.00050065  0.84800000
C        C    0.88960000  0.55190100  0.00050065  0.84800000
C        C    0.88960000  0.05189990  0.50050000  0.84800000
C        C    0.38960100  0.55190100  0.50050000  0.84800000
H        H    0.92943400  0.18199100  0.38210700  0.10000000
H        H    0.42943300  0.68199200  0.38210700  0.10000000
H        H    0.42943300  0.18199100  0.88210800  0.10000000
H        H    0.92943400  0.68199200  0.88210800  0.10000000
H        H    0.98306000  0.16667600  0.39904600  0.10000000
H        H    0.48306100  0.66667600  0.39904600  0.10000000
H        H    0.48306100  0.16667600  0.89904500  0.10000000
H        H    0.98306000  0.66667600  0.89904500  0.10000000
H        H    0.86328600  0.08223090  0.32219600  0.10000000
H        H    0.36328600  0.58223200  0.32219600  0.10000000
H        H    0.36328600  0.08223090  0.82219600  0.10000000
H        H    0.86328600  0.58223200  0.82219600  0.10000000
H        H    0.87526100  0.12388700  0.30578000  0.10000000
H        H    0.37526000  0.62388800  0.30578000  0.10000000
H        H    0.37526000  0.12388700  0.80577900  0.10000000
H        H    0.87526100  0.62388800  0.80577900  0.10000000
H        H    0.94408300  0.26217300  0.40927000  0.10000000
H        H    0.44408200  0.76217200  0.40927000  0.10000000
H        H    0.44408200  0.26217300  0.90927000  0.10000000
H        H    0.94408300  0.76217200  0.90927000  0.10000000
H        H    0.94914800  0.15084000  0.48992900  0.10000000
H        H    0.44914700  0.65083900  0.48992900  0.10000000
H        H    0.44914700  0.15084000  0.98992800  0.10000000
H        H    0.94914800  0.65083900  0.98992800  0.10000000
Cr       Cr   0.77259900  0.20340000  0.30480100  1.85900000
Cr       Cr   0.27260000  0.70340000  0.30480100  1.85900000
Cr       Cr   0.27260000  0.20340000  0.80480000  1.85900000
Cr       Cr   0.77259900  0.70340000  0.80480000  1.85900000
Cr       Cr   0.86970000  0.08999980  0.26359900  1.85900000
Cr       Cr   0.36969900  0.59000100  0.26359900  1.85900000
Cr       Cr   0.36969900  0.08999980  0.76360000  1.85900000
Cr       Cr   0.86970000  0.59000100  0.76360000  1.85900000
O        O    0.81709900  0.29370000  0.34570000 -0.73100000
O        O    0.31710000  0.79370100  0.34570000 -0.73100000
O        O    0.31710000  0.29370000  0.84569900 -0.73100000
O        O    0.81709900  0.79370100  0.84569900 -0.73100000
O        O    0.83560000  0.31500000  0.36530100 -0.73100000
O        O    0.33560100  0.81499900  0.36530100 -0.73100000
O        O    0.33560100  0.31500000  0.86530000 -0.73100000
O        O    0.83560000  0.81499900  0.86530000 -0.73100000
O        O    0.87649900  0.16150000  0.34830100 -0.73100000
O        O    0.37650000  0.66150000  0.34830100 -0.73100000
O        O    0.37650000  0.16150000  0.84830000 -0.73100000
O        O    0.87649900  0.66150000  0.84830000 -0.73100000
O        O    0.89989900  0.09870010  0.37840000 -0.58700000
O        O    0.39990000  0.59869900  0.37840000 -0.58700000
O        O    0.39990000  0.09870010  0.87840000 -0.58700000
O        O    0.89989900  0.59869900  0.87840000 -0.58700000
O        O    0.88460000  0.13390000  0.34040000 -0.58700000
O        O    0.38460000  0.63390000  0.34040000 -0.58700000
O        O    0.38460000  0.13390000  0.84040100 -0.58700000
O        O    0.88460000  0.63390000  0.84040100 -0.58700000
O        O    0.80090000  0.23230000  0.32640000 -0.58700000
O        O    0.30090000  0.73229900  0.32640000 -0.58700000
O        O    0.30090000  0.23230000  0.82640000 -0.58700000
O        O    0.80090000  0.73229900  0.82640000 -0.58700000
O        O    0.83910000  0.19810000  0.31140000 -0.58700000
O        O    0.33910000  0.69810000  0.31140000 -0.58700000
O        O    0.33910000  0.19810000  0.81140000 -0.58700000
O        O    0.83910000  0.69810000  0.81140000 -0.58700000
O        O    0.77200000  0.22340000  0.32240000 -0.73100000
O        O    0.27200100  0.72340000  0.32240000 -0.73100000
O        O    0.27200100  0.22340000  0.82239900 -0.73100000
O        O    0.77200000  0.72340000  0.82239900 -0.73100000
O        O    0.78420100  0.26210000  0.22229900 -0.58700000
O        O    0.28420000  0.76210000  0.22229900 -0.58700000
O        O    0.28420000  0.26210000  0.72230000 -0.58700000
O        O    0.78420100  0.76210000  0.72230000 -0.58700000
O        O    0.77469900  0.18020000  0.29620000 -0.73100000
O        O    0.27470000  0.68020100  0.29620000 -0.73100000
O        O    0.27470000  0.18020000  0.79620000 -0.73100000
O        O    0.77469900  0.68020100  0.79620000 -0.73100000
O        O    0.82610000  0.19050000  0.28470100 -0.73100000
O        O    0.32609900  0.69050000  0.28470100 -0.73100000
O        O    0.32609900  0.19050000  0.78470000 -0.73100000
O        O    0.82610000  0.69050000  0.78470000 -0.73100000
O        O    0.84159900  0.05330040  0.24869900 -0.58700000
O        O    0.34160000  0.55330000  0.24869900 -0.58700000
O        O    0.34160000  0.05330040  0.74870000 -0.58700000
O        O    0.84159900  0.55330000  0.74870000 -0.58700000
O        O    0.97260000  0.07030040  0.41980000 -0.58700000
O        O    0.47260000  0.57030000  0.41980000 -0.58700000
O        O    0.47260000  0.07030040  0.91980100 -0.58700000
O        O    0.97260000  0.57030000  0.91980100 -0.58700000
O        O    0.86880000  0.06339970  0.25990000 -0.73100000
O        O    0.36880000  0.56340000  0.25990000 -0.73100000
O        O    0.36880000  0.06339970  0.75989900 -0.73100000
O        O    0.86880000  0.56340000  0.75989900 -0.73100000
O        O    0.96180000  0.07919960  0.39070100 -0.73100000
O        O    0.46180100  0.57920000  0.39070100 -0.73100000
O        O    0.46180100  0.07919960  0.89070000 -0.73100000
O        O    0.96180000  0.57920000  0.89070000 -0.73100000
O        O    0.86840000  0.11340000  0.27500000 -0.73100000
O        O    0.36840100  0.61340100  0.27500000 -0.73100000
O        O    0.36840100  0.11340000  0.77500000 -0.73100000
O        O    0.86840000  0.61340100  0.77500000 -0.73100000
O        O    0.85150000  0.13160000  0.25680000 -0.73100000
O        O    0.35150100  0.63159900  0.25680000 -0.73100000
O        O    0.35150100  0.13160000  0.75680000 -0.73100000
O        O    0.85150000  0.63159900  0.75680000 -0.73100000
C        C    0.92500000  0.08170010  0.40110000  0.11000000
C        C    0.42500000  0.58169900  0.40110000  0.11000000
C        C    0.42500000  0.08170010  0.90110000  0.11000000
C        C    0.92500000  0.58169900  0.90110000  0.11000000
C        C    0.93840000  0.07089980  0.41440000 -0.27400000
C        C    0.43840100  0.57090000  0.41440000 -0.27400000
C        C    0.43840100  0.07089980  0.91440000 -0.27400000
C        C    0.93840000  0.57090000  0.91440000 -0.27400000
C        C    0.95850000  0.07210000  0.40770100  0.84800000
C        C    0.45850100  0.57210100  0.40770100  0.84800000
C        C    0.45850100  0.07210000  0.90770000  0.84800000
C        C    0.95850000  0.57210100  0.90770000  0.84800000
C        C    0.79080000  0.26610000  0.33999900  0.11000000
C        C    0.29080000  0.76610100  0.33999900  0.11000000
C        C    0.29080000  0.26610000  0.84000000  0.11000000
C        C    0.79080000  0.76610100  0.84000000  0.11000000
C        C    0.77750000  0.25260000  0.33660100 -0.27400000
C        C    0.27750000  0.75260000  0.33660100 -0.27400000
C        C    0.27750000  0.25260000  0.83660000 -0.27400000
C        C    0.77750000  0.75260000  0.83660000 -0.27400000
C        C    0.78380000  0.23630000  0.32760000  0.84800000
C        C    0.28379900  0.73630000  0.32760000  0.84800000
C        C    0.28379900  0.23630000  0.82760100  0.84800000
C        C    0.78380000  0.73630000  0.82760100  0.84800000
C        C    0.85190000  0.17260000  0.29690000 -0.27400000
C        C    0.35190000  0.67260000  0.29690000 -0.27400000
C        C    0.35190000  0.17260000  0.79690100 -0.27400000
C        C    0.85190000  0.67260000  0.79690100 -0.27400000
C        C    0.85510000  0.16150000  0.28110000  0.11000000
C        C    0.35510000  0.66150000  0.28110000  0.11000000
C        C    0.35510000  0.16150000  0.78109900  0.11000000
C        C    0.85510000  0.66150000  0.78109900  0.11000000
C        C    0.86390000  0.14340000  0.28440000 -0.27400000
C        C    0.36390000  0.64340000  0.28440000 -0.27400000
C        C    0.36390000  0.14340000  0.78440000 -0.27400000
C        C    0.86390000  0.64340000  0.78440000 -0.27400000
C        C    0.87019900  0.13839900  0.30289900  0.11000000
C        C    0.37020000  0.63840000  0.30289900  0.11000000
C        C    0.37020000  0.13839900  0.80290000  0.11000000
C        C    0.87019900  0.63840000  0.80290000  0.11000000
C        C    0.86990000  0.15219900  0.31750100 -0.27400000
C        C    0.36990000  0.65220000  0.31750100 -0.27400000
C        C    0.36990000  0.15219900  0.81750000 -0.27400000
C        C    0.86990000  0.65220000  0.81750000 -0.27400000
C        C    0.86379900  0.17029900  0.31270000  0.11000000
C        C    0.36380000  0.67030000  0.31270000  0.11000000
C        C    0.36380000  0.17029900  0.81270100  0.11000000
C        C    0.86379900  0.67030000  0.81270100  0.11000000
C        C    0.87700000  0.14870000  0.33630000  0.84800000
C        C    0.37699900  0.64870000  0.33630000  0.84800000
C        C    0.37699900  0.14870000  0.83629900  0.84800000
C        C    0.87700000  0.64870000  0.83629900  0.84800000
C        C    0.86080000  0.12850000  0.27170000  0.84800000
C        C    0.36080000  0.62850000  0.27170000  0.84800000
C        C    0.36080000  0.12850000  0.77170000  0.84800000
C        C    0.86080000  0.62850000  0.77170000  0.84800000
C        C    0.83860000  0.18729900  0.29760000  0.84800000
C        C    0.33860000  0.68730000  0.29760000  0.84800000
C        C    0.33860000  0.18729900  0.79760000  0.84800000
C        C    0.83860000  0.68730000  0.79760000  0.84800000
C        C    0.78910000  0.12120000  0.26530000 -0.27400000
C        C    0.28909900  0.62120000  0.26530000 -0.27400000
C        C    0.28909900  0.12120000  0.76530000 -0.27400000
C        C    0.78910000  0.62120000  0.76530000 -0.27400000
C        C    0.79069900  0.14340000  0.26760000  0.11000000
C        C    0.29070000  0.64340000  0.26760000  0.11000000
C        C    0.29070000  0.14340000  0.76760000  0.11000000
C        C    0.79069900  0.64340000  0.76760000  0.11000000
C        C    0.86040000  0.05189990  0.24950000  0.84800000
C        C    0.36040000  0.55190100  0.24950000  0.84800000
C        C    0.36040000  0.05189990  0.74950000  0.84800000
C        C    0.86040000  0.55190100  0.74950000  0.84800000
H        H    0.82056700  0.18199100  0.36789200  0.10000000
H        H    0.32056800  0.68199200  0.36789200  0.10000000
H        H    0.32056800  0.18199100  0.86789200  0.10000000
H        H    0.82056700  0.68199200  0.86789200  0.10000000
H        H    0.76693900  0.16667600  0.35095500  0.10000000
H        H    0.26693900  0.66667600  0.35095500  0.10000000
H        H    0.26693900  0.16667600  0.85095400  0.10000000
H        H    0.76693900  0.66667600  0.85095400  0.10000000
H        H    0.89551600  0.35382300  0.31196900  0.10000000
H        H    0.39551600  0.85382400  0.31196900  0.10000000
H        H    0.39551600  0.35382300  0.81196800  0.10000000
H        H    0.89551600  0.85382400  0.81196800  0.10000000
H        H    0.88671400  0.08223090  0.42780300  0.10000000
H        H    0.38671300  0.58223200  0.42780300  0.10000000
H        H    0.38671300  0.08223090  0.92780400  0.10000000
H        H    0.88671400  0.58223200  0.92780400  0.10000000
H        H    0.87474000  0.12388700  0.44422000  0.10000000
H        H    0.37473900  0.62388800  0.44422000  0.10000000
H        H    0.37473900  0.12388700  0.94422000  0.10000000
H        H    0.87474000  0.62388800  0.94422000  0.10000000
H        H    0.80591800  0.26217300  0.34072900  0.10000000
H        H    0.30591800  0.76217200  0.34072900  0.10000000
H        H    0.30591800  0.26217300  0.84073000  0.10000000
H        H    0.80591800  0.76217200  0.84073000  0.10000000
H        H    0.80085200  0.15084000  0.26007200  0.10000000
H        H    0.30085300  0.65083900  0.26007200  0.10000000
H        H    0.30085300  0.15084000  0.76007100  0.10000000
H        H    0.80085200  0.65083900  0.76007100  0.10000000
Cr       Cr   0.27260000  0.04659990  0.44520000  1.62000000
Cr       Cr   0.77259900  0.54660100  0.44520000  1.62000000
Cr       Cr   0.77259900  0.04659990  0.94520000  1.62000000
Cr       Cr   0.27260000  0.54660100  0.94520000  1.62000000
Cr       Cr   0.36969900  0.16000000  0.48640000  1.62000000
Cr       Cr   0.86970000  0.66000100  0.48640000  1.62000000
Cr       Cr   0.86970000  0.16000000  0.98640000  1.62000000
Cr       Cr   0.36969900  0.66000100  0.98640000  1.62000000
O        O    0.81709900  0.45630000  0.40430000 -0.58700000
O        O    0.31710000  0.95630000  0.40430000 -0.58700000
O        O    0.31710000  0.45630000  0.90430000 -0.58700000
O        O    0.81709900  0.95630000  0.90430000 -0.58700000
O        O    0.83560000  0.43500000  0.38470000 -0.58700000
O        O    0.33560100  0.93500000  0.38470000 -0.58700000
O        O    0.33560100  0.43500000  0.88470000 -0.58700000
O        O    0.83560000  0.93500000  0.88470000 -0.58700000
O        O    0.37650000  0.08850060  0.40170000 -0.73100000
O        O    0.87649900  0.58850000  0.40170000 -0.73100000
O        O    0.87649900  0.08850060  0.90170000 -0.73100000
O        O    0.37650000  0.58850000  0.90170000 -0.73100000
O        O    0.39990000  0.15130000  0.37160100 -0.73100000
O        O    0.89989900  0.65130000  0.37160100 -0.73100000
O        O    0.89989900  0.15130000  0.87160000 -0.73100000
O        O    0.39990000  0.65130000  0.87160000 -0.73100000
O        O    0.38460000  0.11610100  0.40960000 -0.73100000
O        O    0.88460000  0.61610000  0.40960000 -0.73100000
O        O    0.88460000  0.11610100  0.90960000 -0.73100000
O        O    0.38460000  0.61610000  0.90960000 -0.73100000
O        O    0.30090000  0.01769960  0.42360100 -0.73100000
O        O    0.80090000  0.51770000  0.42360100 -0.73100000
O        O    0.80090000  0.01769960  0.92360000 -0.73100000
O        O    0.30090000  0.51770000  0.92360000 -0.73100000
O        O    0.33910000  0.05189990  0.43859900 -0.73100000
O        O    0.83910000  0.55190100  0.43859900 -0.73100000
O        O    0.83910000  0.05189990  0.93860000 -0.73100000
O        O    0.33910000  0.55190100  0.93860000 -0.73100000
O        O    0.27200100  0.02660010  0.42760000 -0.58700000
O        O    0.77200000  0.52659900  0.42760000 -0.58700000
O        O    0.77200000  0.02660010  0.92760000 -0.58700000
O        O    0.27200100  0.52659900  0.92760000 -0.58700000
O        O    0.28420000  0.48790000  0.02770020 -0.58700000
O        O    0.78420100  0.98789900  0.02770020 -0.58700000
O        O    0.78420100  0.48790000  0.52769900 -0.58700000
O        O    0.28420000  0.98789900  0.52769900 -0.58700000
O        O    0.27470000  0.06979980  0.45380000 -0.58700000
O        O    0.77469900  0.56980000  0.45380000 -0.58700000
O        O    0.77469900  0.06979980  0.95380100 -0.58700000
O        O    0.27470000  0.56980000  0.95380100 -0.58700000
O        O    0.32609900  0.05950010  0.46530000 -0.73100000
O        O    0.82610000  0.55949900  0.46530000 -0.73100000
O        O    0.82610000  0.05950010  0.96530000 -0.73100000
O        O    0.32609900  0.55949900  0.96530000 -0.73100000
O        O    0.84159900  0.19670100  0.00130031 -0.73100000
O        O    0.34160000  0.69670000  0.00130031 -0.73100000
O        O    0.34160000  0.19670100  0.50130000 -0.73100000
O        O    0.84159900  0.69670000  0.50130000 -0.73100000
O        O    0.47260000  0.17970100  0.33020100 -0.73100000
O        O    0.97260000  0.67970000  0.33020100 -0.73100000
O        O    0.97260000  0.17970100  0.83020000 -0.73100000
O        O    0.47260000  0.67970000  0.83020000 -0.73100000
O        O    0.36880000  0.18660000  0.49010000 -0.58700000
O        O    0.86880000  0.68660100  0.49010000 -0.58700000
O        O    0.86880000  0.18660000  0.99010000 -0.58700000
O        O    0.36880000  0.68660100  0.99010000 -0.58700000
O        O    0.46180100  0.17080000  0.35930000 -0.58700000
O        O    0.96180000  0.67079900  0.35930000 -0.58700000
O        O    0.96180000  0.17080000  0.85930000 -0.58700000
O        O    0.46180100  0.67079900  0.85930000 -0.58700000
O        O    0.36840100  0.13660000  0.47500000 -0.58700000
O        O    0.86840000  0.63660000  0.47500000 -0.58700000
O        O    0.86840000  0.13660000  0.97500100 -0.58700000
O        O    0.36840100  0.63660000  0.97500100 -0.58700000
O        O    0.35150100  0.11840000  0.49320000 -0.73100000
O        O    0.85150000  0.61840000  0.49320000 -0.73100000
O        O    0.85150000  0.11840000  0.99319900 -0.73100000
O        O    0.35150100  0.61840000  0.99319900 -0.73100000
F        F    0.24860100  0.05169970  0.43480000 -0.56600000
F        F    0.74860000  0.55170000  0.43480000 -0.56600000
F        F    0.74860000  0.05169970  0.93480100 -0.56600000
F        F    0.24860100  0.55170000  0.93480100 -0.56600000
F        F    0.39250000  0.16550000  0.47569900 -0.56600000
F        F    0.89249900  0.66549900  0.47569900 -0.56600000
F        F    0.89249900  0.16550000  0.97570000 -0.56600000
F        F    0.39250000  0.66549900  0.97570000 -0.56600000
C        C    0.42500000  0.16830000  0.34890000  0.11000000
C        C    0.92500000  0.66830000  0.34890000  0.11000000
C        C    0.92500000  0.16830000  0.84889900  0.11000000
C        C    0.42500000  0.66830000  0.84889900  0.11000000
C        C    0.43840100  0.17910000  0.33560100 -0.27400000
C        C    0.93840000  0.67910100  0.33560100 -0.27400000
C        C    0.93840000  0.17910000  0.83560000 -0.27400000
C        C    0.43840100  0.67910100  0.83560000 -0.27400000
C        C    0.45850100  0.17790000  0.34230000  0.84800000
C        C    0.95850000  0.67790000  0.34230000  0.84800000
C        C    0.95850000  0.17790000  0.84230000  0.84800000
C        C    0.45850100  0.67790000  0.84230000  0.84800000
C        C    0.79080000  0.48390000  0.40999900  0.11000000
C        C    0.29080000  0.98390000  0.40999900  0.11000000
C        C    0.29080000  0.48390000  0.91000000  0.11000000
C        C    0.79080000  0.98390000  0.91000000  0.11000000
C        C    0.77750000  0.49740000  0.41340000 -0.27400000
C        C    0.27750000  0.99739900  0.41340000 -0.27400000
C        C    0.27750000  0.49740000  0.91340000 -0.27400000
C        C    0.77750000  0.99739900  0.91340000 -0.27400000
C        C    0.28379900  0.01369990  0.42240000  0.84800000
C        C    0.78380000  0.51370100  0.42240000  0.84800000
C        C    0.78380000  0.01369990  0.92240000  0.84800000
C        C    0.28379900  0.51370100  0.92240000  0.84800000
C        C    0.35190000  0.07740000  0.45310000 -0.27400000
C        C    0.85190000  0.57740100  0.45310000 -0.27400000
C        C    0.85190000  0.07740000  0.95310000 -0.27400000
C        C    0.35190000  0.57740100  0.95310000 -0.27400000
C        C    0.35510000  0.08850060  0.46890000  0.11000000
C        C    0.85510000  0.58850000  0.46890000  0.11000000
C        C    0.85510000  0.08850060  0.96890000  0.11000000
C        C    0.35510000  0.58850000  0.96890000  0.11000000
C        C    0.36390000  0.10659900  0.46560000 -0.27400000
C        C    0.86390000  0.60660000  0.46560000 -0.27400000
C        C    0.86390000  0.10659900  0.96559900 -0.27400000
C        C    0.36390000  0.60660000  0.96559900 -0.27400000
C        C    0.37020000  0.11160000  0.44709900  0.11000000
C        C    0.87019900  0.61160000  0.44709900  0.11000000
C        C    0.87019900  0.11160000  0.94710000  0.11000000
C        C    0.37020000  0.61160000  0.94710000  0.11000000
C        C    0.36990000  0.09780030  0.43250000 -0.27400000
C        C    0.86990000  0.59780000  0.43250000 -0.27400000
C        C    0.86990000  0.09780030  0.93250000 -0.27400000
C        C    0.36990000  0.59780000  0.93250000 -0.27400000
C        C    0.36380000  0.07970020  0.43730100  0.11000000
C        C    0.86379900  0.57970000  0.43730100  0.11000000
C        C    0.86379900  0.07970020  0.93730000  0.11000000
C        C    0.36380000  0.57970000  0.93730000  0.11000000
C        C    0.37699900  0.10129900  0.41370000  0.84800000
C        C    0.87700000  0.60130000  0.41370000  0.84800000
C        C    0.87700000  0.10129900  0.91369900  0.84800000
C        C    0.37699900  0.60130000  0.91369900  0.84800000
C        C    0.36080000  0.12149900  0.47830000  0.84800000
C        C    0.86080000  0.62150000  0.47830000  0.84800000
C        C    0.86080000  0.12149900  0.97829900  0.84800000
C        C    0.36080000  0.62150000  0.97829900  0.84800000
C        C    0.33860000  0.06270020  0.45239900  0.84800000
C        C    0.83860000  0.56269900  0.45239900  0.84800000
C        C    0.83860000  0.06270020  0.95240000  0.84800000
C        C    0.33860000  0.56269900  0.95240000  0.84800000
C        C    0.28909900  0.12880100  0.48470000 -0.27400000
C        C    0.78910000  0.62880000  0.48470000 -0.27400000
C        C    0.78910000  0.12880100  0.98469900 -0.27400000
C        C    0.28909900  0.62880000  0.98469900 -0.27400000
C        C    0.29070000  0.10659900  0.48240000  0.11000000
C        C    0.79069900  0.60660000  0.48240000  0.11000000
C        C    0.79069900  0.10659900  0.98240100  0.11000000
C        C    0.29070000  0.60660000  0.98240100  0.11000000
C        C    0.86040000  0.19810000  0.00050065  0.84800000
C        C    0.36040000  0.69810000  0.00050065  0.84800000
C        C    0.36040000  0.19810000  0.50050000  0.84800000
C        C    0.86040000  0.69810000  0.50050000  0.84800000
H        H    0.32056800  0.06800840  0.38210700  0.10000000
H        H    0.82056700  0.56800900  0.38210700  0.10000000
H        H    0.82056700  0.06800840  0.88210800  0.10000000
H        H    0.32056800  0.56800900  0.88210800  0.10000000
H        H    0.26693900  0.08332410  0.39904600  0.10000000
H        H    0.76693900  0.58332500  0.39904600  0.10000000
H        H    0.76693900  0.08332410  0.89904500  0.10000000
H        H    0.26693900  0.58332500  0.89904500  0.10000000
H        H    0.89551600  0.39617600  0.43803200  0.10000000
H        H    0.39551600  0.89617700  0.43803200  0.10000000
H        H    0.39551600  0.39617600  0.93803200  0.10000000
H        H    0.89551600  0.89617700  0.93803200  0.10000000
H        H    0.38671300  0.16776900  0.32219600  0.10000000
H        H    0.88671400  0.66776800  0.32219600  0.10000000
H        H    0.88671400  0.16776900  0.82219600  0.10000000
H        H    0.38671300  0.66776800  0.82219600  0.10000000
H        H    0.37473900  0.12611200  0.30578000  0.10000000
H        H    0.87474000  0.62611200  0.30578000  0.10000000
H        H    0.87474000  0.12611200  0.80577900  0.10000000
H        H    0.37473900  0.62611200  0.80577900  0.10000000
H        H    0.80591800  0.48782700  0.40927000  0.10000000
H        H    0.30591800  0.98782700  0.40927000  0.10000000
H        H    0.30591800  0.48782700  0.90927000  0.10000000
H        H    0.80591800  0.98782700  0.90927000  0.10000000
H        H    0.30085300  0.09916100  0.48992900  0.10000000
H        H    0.80085200  0.59916000  0.48992900  0.10000000
H        H    0.80085200  0.09916100  0.98992800  0.10000000
H        H    0.30085300  0.59916000  0.98992800  0.10000000
Cr       Cr   0.47740000  0.04659990  0.30480100  1.85900000
Cr       Cr   0.97740000  0.54660100  0.30480100  1.85900000
Cr       Cr   0.97740000  0.04659990  0.80480000  1.85900000
Cr       Cr   0.47740000  0.54660100  0.80480000  1.85900000
Cr       Cr   0.38029900  0.16000000  0.26359900  1.85900000
Cr       Cr   0.88030000  0.66000100  0.26359900  1.85900000
Cr       Cr   0.88030000  0.16000000  0.76360000  1.85900000
Cr       Cr   0.38029900  0.66000100  0.76360000  1.85900000
O        O    0.93290000  0.45630000  0.34570000 -0.73100000
O        O    0.43290000  0.95630000  0.34570000 -0.73100000
O        O    0.43290000  0.45630000  0.84569900 -0.73100000
O        O    0.93290000  0.95630000  0.84569900 -0.73100000
O        O    0.91440000  0.43500000  0.36530100 -0.73100000
O        O    0.41440000  0.93500000  0.36530100 -0.73100000
O        O    0.41440000  0.43500000  0.86530000 -0.73100000
O        O    0.91440000  0.93500000  0.86530000 -0.73100000
O        O    0.37350000  0.08850060  0.34830100 -0.73100000
O        O    0.87350000  0.58850000  0.34830100 -0.73100000
O        O    0.87350000  0.08850060  0.84830000 -0.73100000
O        O    0.37350000  0.58850000  0.84830000 -0.73100000
O        O    0.35010000  0.15130000  0.37840000 -0.58700000
O        O    0.85010000  0.65130000  0.37840000 -0.58700000
O        O    0.85010000  0.15130000  0.87840000 -0.58700000
O        O    0.35010000  0.65130000  0.87840000 -0.58700000
O        O    0.36539900  0.11610100  0.34040000 -0.58700000
O        O    0.86540000  0.61610000  0.34040000 -0.58700000
O        O    0.86540000  0.11610100  0.84040100 -0.58700000
O        O    0.36539900  0.61610000  0.84040100 -0.58700000
O        O    0.44910100  0.01769960  0.32640000 -0.58700000
O        O    0.94910000  0.51770000  0.32640000 -0.58700000
O        O    0.94910000  0.01769960  0.82640000 -0.58700000
O        O    0.44910100  0.51770000  0.82640000 -0.58700000
O        O    0.41090100  0.05189990  0.31140000 -0.58700000
O        O    0.91090000  0.55190100  0.31140000 -0.58700000
O        O    0.91090000  0.05189990  0.81140000 -0.58700000
O        O    0.41090100  0.55190100  0.81140000 -0.58700000
O        O    0.47800000  0.02660010  0.32240000 -0.73100000
O        O    0.97800000  0.52659900  0.32240000 -0.73100000
O        O    0.97800000  0.02660010  0.82239900 -0.73100000
O        O    0.47800000  0.52659900  0.82239900 -0.73100000
O        O    0.96580000  0.48790000  0.22229900 -0.58700000
O        O    0.46580000  0.98789900  0.22229900 -0.58700000
O        O    0.46580000  0.48790000  0.72230000 -0.58700000
O        O    0.96580000  0.98789900  0.72230000 -0.58700000
O        O    0.47530000  0.06979980  0.29620000 -0.73100000
O        O    0.97530000  0.56980000  0.29620000 -0.73100000
O        O    0.97530000  0.06979980  0.79620000 -0.73100000
O        O    0.47530000  0.56980000  0.79620000 -0.73100000
O        O    0.42390000  0.05950010  0.28470100 -0.73100000
O        O    0.92390000  0.55949900  0.28470100 -0.73100000
O        O    0.92390000  0.05950010  0.78470000 -0.73100000
O        O    0.42390000  0.55949900  0.78470000 -0.73100000
O        O    0.40840000  0.19670100  0.24869900 -0.58700000
O        O    0.90839900  0.69670000  0.24869900 -0.58700000
O        O    0.90839900  0.19670100  0.74870000 -0.58700000
O        O    0.40840000  0.69670000  0.74870000 -0.58700000
O        O    0.27739900  0.17970100  0.41980000 -0.58700000
O        O    0.77740000  0.67970000  0.41980000 -0.58700000
O        O    0.77740000  0.17970100  0.91980100 -0.58700000
O        O    0.27739900  0.67970000  0.91980100 -0.58700000
O        O    0.38120100  0.18660000  0.25990000 -0.73100000
O        O    0.88120000  0.68660100  0.25990000 -0.73100000
O        O    0.88120000  0.18660000  0.75989900 -0.73100000
O        O    0.38120100  0.68660100  0.75989900 -0.73100000
O        O    0.28820000  0.17080000  0.39070100 -0.73100000
O        O    0.78820000  0.67079900  0.39070100 -0.73100000
O        O    0.78820000  0.17080000  0.89070000 -0.73100000
O        O    0.28820000  0.67079900  0.89070000 -0.73100000
O        O    0.38160000  0.13660000  0.27500000 -0.73100000
O        O    0.88160000  0.63660000  0.27500000 -0.73100000
O        O    0.88160000  0.13660000  0.77500000 -0.73100000
O        O    0.38160000  0.63660000  0.77500000 -0.73100000
O        O    0.39850000  0.11840000  0.25680000 -0.73100000
O        O    0.89850000  0.61840000  0.25680000 -0.73100000
O        O    0.89850000  0.11840000  0.75680000 -0.73100000
O        O    0.39850000  0.61840000  0.75680000 -0.73100000
C        C    0.32500100  0.16830000  0.40110000  0.11000000
C        C    0.82500000  0.66830000  0.40110000  0.11000000
C        C    0.82500000  0.16830000  0.90110000  0.11000000
C        C    0.32500100  0.66830000  0.90110000  0.11000000
C        C    0.31160000  0.17910000  0.41440000 -0.27400000
C        C    0.81160000  0.67910100  0.41440000 -0.27400000
C        C    0.81160000  0.17910000  0.91440000 -0.27400000
C        C    0.31160000  0.67910100  0.91440000 -0.27400000
C        C    0.29150000  0.17790000  0.40770100  0.84800000
C        C    0.79150100  0.67790000  0.40770100  0.84800000
C        C    0.79150100  0.17790000  0.90770000  0.84800000
C        C    0.29150000  0.67790000  0.90770000  0.84800000
C        C    0.95919900  0.48390000  0.33999900  0.11000000
C        C    0.45920000  0.98390000  0.33999900  0.11000000
C        C    0.45920000  0.48390000  0.84000000  0.11000000
C        C    0.95919900  0.98390000  0.84000000  0.11000000
C        C    0.97250000  0.49740000  0.33660100 -0.27400000
C        C    0.47249900  0.99739900  0.33660100 -0.27400000
C        C    0.47249900  0.49740000  0.83660000 -0.27400000
C        C    0.97250000  0.99739900  0.83660000 -0.27400000
C        C    0.46619900  0.01369990  0.32760000  0.84800000
C        C    0.96620000  0.51370100  0.32760000  0.84800000
C        C    0.96620000  0.01369990  0.82760100  0.84800000
C        C    0.46619900  0.51370100  0.82760100  0.84800000
C        C    0.39810100  0.07740000  0.29690000 -0.27400000
C        C    0.89810000  0.57740100  0.29690000 -0.27400000
C        C    0.89810000  0.07740000  0.79690100 -0.27400000
C        C    0.39810100  0.57740100  0.79690100 -0.27400000
C        C    0.39490100  0.08850060  0.28110000  0.11000000
C        C    0.89490000  0.58850000  0.28110000  0.11000000
C        C    0.89490000  0.08850060  0.78109900  0.11000000
C        C    0.39490100  0.58850000  0.78109900  0.11000000
C        C    0.38610000  0.10659900  0.28440000 -0.27400000
C        C    0.88609900  0.60660000  0.28440000 -0.27400000
C        C    0.88609900  0.10659900  0.78440000 -0.27400000
C        C    0.38610000  0.60660000  0.78440000 -0.27400000
C        C    0.37980000  0.11160000  0.30289900  0.11000000
C        C    0.87980000  0.61160000  0.30289900  0.11000000
C        C    0.87980000  0.11160000  0.80290000  0.11000000
C        C    0.37980000  0.61160000  0.80290000  0.11000000
C        C    0.38010100  0.09780030  0.31750100 -0.27400000
C        C    0.88010000  0.59780000  0.31750100 -0.27400000
C        C    0.88010000  0.09780030  0.81750000 -0.27400000
C        C    0.38010100  0.59780000  0.81750000 -0.27400000
C        C    0.38620000  0.07970020  0.31270000  0.11000000
C        C    0.88620000  0.57970000  0.31270000  0.11000000
C        C    0.88620000  0.07970020  0.81270100  0.11000000
C        C    0.38620000  0.57970000  0.81270100  0.11000000
C        C    0.37300000  0.10129900  0.33630000  0.84800000
C        C    0.87300000  0.60130000  0.33630000  0.84800000
C        C    0.87300000  0.10129900  0.83629900  0.84800000
C        C    0.37300000  0.60130000  0.83629900  0.84800000
C        C    0.38920000  0.12149900  0.27170000  0.84800000
C        C    0.88920100  0.62150000  0.27170000  0.84800000
C        C    0.88920100  0.12149900  0.77170000  0.84800000
C        C    0.38920000  0.62150000  0.77170000  0.84800000
C        C    0.41140000  0.06270020  0.29760000  0.84800000
C        C    0.91140100  0.56269900  0.29760000  0.84800000
C        C    0.91140100  0.06270020  0.79760000  0.84800000
C        C    0.41140000  0.56269900  0.79760000  0.84800000
C        C    0.46089900  0.12880100  0.26530000 -0.27400000
C        C    0.96090000  0.62880000  0.26530000 -0.27400000
C        C    0.96090000  0.12880100  0.76530000 -0.27400000
C        C    0.46089900  0.62880000  0.76530000 -0.27400000
C        C    0.45930000  0.10659900  0.26760000  0.11000000
C        C    0.95929900  0.60660000  0.26760000  0.11000000
C        C    0.95929900  0.10659900  0.76760000  0.11000000
C        C    0.45930000  0.60660000  0.76760000  0.11000000
C        C    0.38960100  0.19810000  0.24950000  0.84800000
C        C    0.88960000  0.69810000  0.24950000  0.84800000
C        C    0.88960000  0.19810000  0.74950000  0.84800000
C        C    0.38960100  0.69810000  0.74950000  0.84800000
H        H    0.42943300  0.06800840  0.36789200  0.10000000
H        H    0.92943400  0.56800900  0.36789200  0.10000000
H        H    0.92943400  0.06800840  0.86789200  0.10000000
H        H    0.42943300  0.56800900  0.86789200  0.10000000
H        H    0.48306100  0.08332410  0.35095500  0.10000000
H        H    0.98306000  0.58332500  0.35095500  0.10000000
H        H    0.98306000  0.08332410  0.85095400  0.10000000
H        H    0.48306100  0.58332500  0.85095400  0.10000000
H        H    0.36328600  0.16776900  0.42780300  0.10000000
H        H    0.86328600  0.66776800  0.42780300  0.10000000
H        H    0.86328600  0.16776900  0.92780400  0.10000000
H        H    0.36328600  0.66776800  0.92780400  0.10000000
H        H    0.37526000  0.12611200  0.44422000  0.10000000
H        H    0.87526100  0.62611200  0.44422000  0.10000000
H        H    0.87526100  0.12611200  0.94422000  0.10000000
H        H    0.37526000  0.62611200  0.94422000  0.10000000
H        H    0.94408300  0.48782700  0.34072900  0.10000000
H        H    0.44408200  0.98782700  0.34072900  0.10000000
H        H    0.44408200  0.48782700  0.84073000  0.10000000
H        H    0.94408300  0.98782700  0.84073000  0.10000000
H        H    0.44914700  0.09916100  0.26007200  0.10000000
H        H    0.94914800  0.59916000  0.26007200  0.10000000
H        H    0.94914800  0.09916100  0.76007100  0.10000000
H        H    0.44914700  0.59916000  0.76007100  0.10000000
Cr       Cr   0.70340000  0.30480100  0.27260000  1.85900000
Cr       Cr   0.20340000  0.80480000  0.27260000  1.85900000
Cr       Cr   0.20340000  0.30480100  0.77259900  1.85900000
Cr       Cr   0.70340000  0.80480000  0.77259900  1.85900000
Cr       Cr   0.59000100  0.26359900  0.36969900  1.85900000
Cr       Cr   0.08999980  0.76360000  0.36969900  1.85900000
Cr       Cr   0.08999980  0.26359900  0.86970000  1.85900000
Cr       Cr   0.59000100  0.76360000  0.86970000  1.85900000
O        O    0.79370100  0.34570000  0.31710000 -0.73100000
O        O    0.29370000  0.84569900  0.31710000 -0.73100000
O        O    0.29370000  0.34570000  0.81709900 -0.73100000
O        O    0.79370100  0.84569900  0.81709900 -0.73100000
O        O    0.81499900  0.36530100  0.33560100 -0.73100000
O        O    0.31500000  0.86530000  0.33560100 -0.73100000
O        O    0.31500000  0.36530100  0.83560000 -0.73100000
O        O    0.81499900  0.86530000  0.83560000 -0.73100000
O        O    0.66150000  0.34830100  0.37650000 -0.73100000
O        O    0.16150000  0.84830000  0.37650000 -0.73100000
O        O    0.16150000  0.34830100  0.87649900 -0.73100000
O        O    0.66150000  0.84830000  0.87649900 -0.73100000
O        O    0.59869900  0.37840000  0.39990000 -0.58700000
O        O    0.09870010  0.87840000  0.39990000 -0.58700000
O        O    0.09870010  0.37840000  0.89989900 -0.58700000
O        O    0.59869900  0.87840000  0.89989900 -0.58700000
O        O    0.63390000  0.34040000  0.38460000 -0.58700000
O        O    0.13390000  0.84040100  0.38460000 -0.58700000
O        O    0.13390000  0.34040000  0.88460000 -0.58700000
O        O    0.63390000  0.84040100  0.88460000 -0.58700000
O        O    0.73229900  0.32640000  0.30090000 -0.58700000
O        O    0.23230000  0.82640000  0.30090000 -0.58700000
O        O    0.23230000  0.32640000  0.80090000 -0.58700000
O        O    0.73229900  0.82640000  0.80090000 -0.58700000
O        O    0.69810000  0.31140000  0.33910000 -0.58700000
O        O    0.19810000  0.81140000  0.33910000 -0.58700000
O        O    0.19810000  0.31140000  0.83910000 -0.58700000
O        O    0.69810000  0.81140000  0.83910000 -0.58700000
O        O    0.72340000  0.32240000  0.27200100 -0.73100000
O        O    0.22340000  0.82239900  0.27200100 -0.73100000
O        O    0.22340000  0.32240000  0.77200000 -0.73100000
O        O    0.72340000  0.82239900  0.77200000 -0.73100000
O        O    0.76210000  0.22229900  0.28420000 -0.73100000
O        O    0.26210000  0.72230000  0.28420000 -0.73100000
O        O    0.26210000  0.22229900  0.78420100 -0.73100000
O        O    0.76210000  0.72230000  0.78420100 -0.73100000
O        O    0.68020100  0.29620000  0.27470000 -0.73100000
O        O    0.18020000  0.79620000  0.27470000 -0.73100000
O        O    0.18020000  0.29620000  0.77469900 -0.73100000
O        O    0.68020100  0.79620000  0.77469900 -0.73100000
O        O    0.69050000  0.28470100  0.32609900 -0.73100000
O        O    0.19050000  0.78470000  0.32609900 -0.73100000
O        O    0.19050000  0.28470100  0.82610000 -0.73100000
O        O    0.69050000  0.78470000  0.82610000 -0.73100000
O        O    0.55330000  0.24869900  0.34160000 -0.58700000
O        O    0.05330040  0.74870000  0.34160000 -0.58700000
O        O    0.05330040  0.24869900  0.84159900 -0.58700000
O        O    0.55330000  0.74870000  0.84159900 -0.58700000
O        O    0.57030000  0.41980000  0.47260000 -0.58700000
O        O    0.07030040  0.91980100  0.47260000 -0.58700000
O        O    0.07030040  0.41980000  0.97260000 -0.58700000
O        O    0.57030000  0.91980100  0.97260000 -0.58700000
O        O    0.56340000  0.25990000  0.36880000 -0.73100000
O        O    0.06339970  0.75989900  0.36880000 -0.73100000
O        O    0.06339970  0.25990000  0.86880000 -0.73100000
O        O    0.56340000  0.75989900  0.86880000 -0.73100000
O        O    0.57920000  0.39070100  0.46180100 -0.73100000
O        O    0.07919960  0.89070000  0.46180100 -0.73100000
O        O    0.07919960  0.39070100  0.96180000 -0.73100000
O        O    0.57920000  0.89070000  0.96180000 -0.73100000
O        O    0.61340100  0.27500000  0.36840100 -0.73100000
O        O    0.11340000  0.77500000  0.36840100 -0.73100000
O        O    0.11340000  0.27500000  0.86840000 -0.73100000
O        O    0.61340100  0.77500000  0.86840000 -0.73100000
O        O    0.63159900  0.25680000  0.35150100 -0.73100000
O        O    0.13160000  0.75680000  0.35150100 -0.73100000
O        O    0.13160000  0.25680000  0.85150000 -0.73100000
O        O    0.63159900  0.75680000  0.85150000 -0.73100000
C        C    0.58169900  0.40110000  0.42500000  0.11000000
C        C    0.08170010  0.90110000  0.42500000  0.11000000
C        C    0.08170010  0.40110000  0.92500000  0.11000000
C        C    0.58169900  0.90110000  0.92500000  0.11000000
C        C    0.57090000  0.41440000  0.43840100 -0.27400000
C        C    0.07089980  0.91440000  0.43840100 -0.27400000
C        C    0.07089980  0.41440000  0.93840000 -0.27400000
C        C    0.57090000  0.91440000  0.93840000 -0.27400000
C        C    0.57210100  0.40770100  0.45850100  0.84800000
C        C    0.07210000  0.90770000  0.45850100  0.84800000
C        C    0.07210000  0.40770100  0.95850000  0.84800000
C        C    0.57210100  0.90770000  0.95850000  0.84800000
C        C    0.76610100  0.33999900  0.29080000  0.11000000
C        C    0.26610000  0.84000000  0.29080000  0.11000000
C        C    0.26610000  0.33999900  0.79080000  0.11000000
C        C    0.76610100  0.84000000  0.79080000  0.11000000
C        C    0.75260000  0.33660100  0.27750000 -0.27400000
C        C    0.25260000  0.83660000  0.27750000 -0.27400000
C        C    0.25260000  0.33660100  0.77750000 -0.27400000
C        C    0.75260000  0.83660000  0.77750000 -0.27400000
C        C    0.73630000  0.32760000  0.28379900  0.84800000
C        C    0.23630000  0.82760100  0.28379900  0.84800000
C        C    0.23630000  0.32760000  0.78380000  0.84800000
C        C    0.73630000  0.82760100  0.78380000  0.84800000
C        C    0.67260000  0.29690000  0.35190000 -0.27400000
C        C    0.17260000  0.79690100  0.35190000 -0.27400000
C        C    0.17260000  0.29690000  0.85190000 -0.27400000
C        C    0.67260000  0.79690100  0.85190000 -0.27400000
C        C    0.66150000  0.28110000  0.35510000  0.11000000
C        C    0.16150000  0.78109900  0.35510000  0.11000000
C        C    0.16150000  0.28110000  0.85510000  0.11000000
C        C    0.66150000  0.78109900  0.85510000  0.11000000
C        C    0.64340000  0.28440000  0.36390000 -0.27400000
C        C    0.14340000  0.78440000  0.36390000 -0.27400000
C        C    0.14340000  0.28440000  0.86390000 -0.27400000
C        C    0.64340000  0.78440000  0.86390000 -0.27400000
C        C    0.63840000  0.30289900  0.37020000  0.11000000
C        C    0.13839900  0.80290000  0.37020000  0.11000000
C        C    0.13839900  0.30289900  0.87019900  0.11000000
C        C    0.63840000  0.80290000  0.87019900  0.11000000
C        C    0.65220000  0.31750100  0.36990000 -0.27400000
C        C    0.15219900  0.81750000  0.36990000 -0.27400000
C        C    0.15219900  0.31750100  0.86990000 -0.27400000
C        C    0.65220000  0.81750000  0.86990000 -0.27400000
C        C    0.67030000  0.31270000  0.36380000  0.11000000
C        C    0.17029900  0.81270100  0.36380000  0.11000000
C        C    0.17029900  0.31270000  0.86379900  0.11000000
C        C    0.67030000  0.81270100  0.86379900  0.11000000
C        C    0.64870000  0.33630000  0.37699900  0.84800000
C        C    0.14870000  0.83629900  0.37699900  0.84800000
C        C    0.14870000  0.33630000  0.87700000  0.84800000
C        C    0.64870000  0.83629900  0.87700000  0.84800000
C        C    0.62850000  0.27170000  0.36080000  0.84800000
C        C    0.12850000  0.77170000  0.36080000  0.84800000
C        C    0.12850000  0.27170000  0.86080000  0.84800000
C        C    0.62850000  0.77170000  0.86080000  0.84800000
C        C    0.68730000  0.29760000  0.33860000  0.84800000
C        C    0.18729900  0.79760000  0.33860000  0.84800000
C        C    0.18729900  0.29760000  0.83860000  0.84800000
C        C    0.68730000  0.79760000  0.83860000  0.84800000
C        C    0.62120000  0.26530000  0.28909900 -0.27400000
C        C    0.12120000  0.76530000  0.28909900 -0.27400000
C        C    0.12120000  0.26530000  0.78910000 -0.27400000
C        C    0.62120000  0.76530000  0.78910000 -0.27400000
C        C    0.64340000  0.26760000  0.29070000  0.11000000
C        C    0.14340000  0.76760000  0.29070000  0.11000000
C        C    0.14340000  0.26760000  0.79069900  0.11000000
C        C    0.64340000  0.76760000  0.79069900  0.11000000
C        C    0.55190100  0.24950000  0.36040000  0.84800000
C        C    0.05189990  0.74950000  0.36040000  0.84800000
C        C    0.05189990  0.24950000  0.86040000  0.84800000
C        C    0.55190100  0.74950000  0.86040000  0.84800000
H        H    0.68199200  0.36789200  0.32056800  0.10000000
H        H    0.18199100  0.86789200  0.32056800  0.10000000
H        H    0.18199100  0.36789200  0.82056700  0.10000000
H        H    0.68199200  0.86789200  0.82056700  0.10000000
H        H    0.66667600  0.35095500  0.26693900  0.10000000
H        H    0.16667600  0.85095400  0.26693900  0.10000000
H        H    0.16667600  0.35095500  0.76693900  0.10000000
H        H    0.66667600  0.85095400  0.76693900  0.10000000
H        H    0.85382400  0.31196900  0.39551600  0.10000000
H        H    0.35382300  0.81196800  0.39551600  0.10000000
H        H    0.35382300  0.31196900  0.89551600  0.10000000
H        H    0.85382400  0.81196800  0.89551600  0.10000000
H        H    0.58223200  0.42780300  0.38671300  0.10000000
H        H    0.08223090  0.92780400  0.38671300  0.10000000
H        H    0.08223090  0.42780300  0.88671400  0.10000000
H        H    0.58223200  0.92780400  0.88671400  0.10000000
H        H    0.62388800  0.44422000  0.37473900  0.10000000
H        H    0.12388700  0.94422000  0.37473900  0.10000000
H        H    0.12388700  0.44422000  0.87474000  0.10000000
H        H    0.62388800  0.94422000  0.87474000  0.10000000
H        H    0.76217200  0.34072900  0.30591800  0.10000000
H        H    0.26217300  0.84073000  0.30591800  0.10000000
H        H    0.26217300  0.34072900  0.80591800  0.10000000
H        H    0.76217200  0.84073000  0.80591800  0.10000000
H        H    0.65083900  0.26007200  0.30085300  0.10000000
H        H    0.15084000  0.76007100  0.30085300  0.10000000
H        H    0.15084000  0.26007200  0.80085200  0.10000000
H        H    0.65083900  0.76007100  0.80085200  0.10000000
Cr       Cr   0.70340000  0.44520000  0.47740000  1.62000000
Cr       Cr   0.20340000  0.94520000  0.47740000  1.62000000
Cr       Cr   0.20340000  0.44520000  0.97740000  1.62000000
Cr       Cr   0.70340000  0.94520000  0.97740000  1.62000000
Cr       Cr   0.59000100  0.48640000  0.38029900  1.62000000
Cr       Cr   0.08999980  0.98640000  0.38029900  1.62000000
Cr       Cr   0.08999980  0.48640000  0.88030000  1.62000000
Cr       Cr   0.59000100  0.98640000  0.88030000  1.62000000
O        O    0.79370100  0.40430000  0.43290000 -0.73100000
O        O    0.29370000  0.90430000  0.43290000 -0.73100000
O        O    0.29370000  0.40430000  0.93290000 -0.73100000
O        O    0.79370100  0.90430000  0.93290000 -0.73100000
O        O    0.81499900  0.38470000  0.41440000 -0.73100000
O        O    0.31500000  0.88470000  0.41440000 -0.73100000
O        O    0.31500000  0.38470000  0.91440000 -0.73100000
O        O    0.81499900  0.88470000  0.91440000 -0.73100000
O        O    0.66150000  0.40170000  0.37350000 -0.73100000
O        O    0.16150000  0.90170000  0.37350000 -0.73100000
O        O    0.16150000  0.40170000  0.87350000 -0.73100000
O        O    0.66150000  0.90170000  0.87350000 -0.73100000
O        O    0.59869900  0.37160100  0.35010000 -0.73100000
O        O    0.09870010  0.87160000  0.35010000 -0.73100000
O        O    0.09870010  0.37160100  0.85010000 -0.73100000
O        O    0.59869900  0.87160000  0.85010000 -0.73100000
O        O    0.63390000  0.40960000  0.36539900 -0.73100000
O        O    0.13390000  0.90960000  0.36539900 -0.73100000
O        O    0.13390000  0.40960000  0.86540000 -0.73100000
O        O    0.63390000  0.90960000  0.86540000 -0.73100000
O        O    0.73229900  0.42360100  0.44910100 -0.73100000
O        O    0.23230000  0.92360000  0.44910100 -0.73100000
O        O    0.23230000  0.42360100  0.94910000 -0.73100000
O        O    0.73229900  0.92360000  0.94910000 -0.73100000
O        O    0.69810000  0.43859900  0.41090100 -0.73100000
O        O    0.19810000  0.93860000  0.41090100 -0.73100000
O        O    0.19810000  0.43859900  0.91090000 -0.73100000
O        O    0.69810000  0.93860000  0.91090000 -0.73100000
O        O    0.72340000  0.42760000  0.47800000 -0.58700000
O        O    0.22340000  0.92760000  0.47800000 -0.58700000
O        O    0.22340000  0.42760000  0.97800000 -0.58700000
O        O    0.72340000  0.92760000  0.97800000 -0.58700000
O        O    0.26210000  0.02770020  0.46580000 -0.58700000
O        O    0.76210000  0.52769900  0.46580000 -0.58700000
O        O    0.76210000  0.02770020  0.96580000 -0.58700000
O        O    0.26210000  0.52769900  0.96580000 -0.58700000
O        O    0.68020100  0.45380000  0.47530000 -0.58700000
O        O    0.18020000  0.95380100  0.47530000 -0.58700000
O        O    0.18020000  0.45380000  0.97530000 -0.58700000
O        O    0.68020100  0.95380100  0.97530000 -0.58700000
O        O    0.69050000  0.46530000  0.42390000 -0.73100000
O        O    0.19050000  0.96530000  0.42390000 -0.73100000
O        O    0.19050000  0.46530000  0.92390000 -0.73100000
O        O    0.69050000  0.96530000  0.92390000 -0.73100000
O        O    0.05330040  0.00130031  0.40840000 -0.73100000
O        O    0.55330000  0.50130000  0.40840000 -0.73100000
O        O    0.55330000  0.00130031  0.90839900 -0.73100000
O        O    0.05330040  0.50130000  0.90839900 -0.73100000
O        O    0.57030000  0.33020100  0.27739900 -0.73100000
O        O    0.07030040  0.83020000  0.27739900 -0.73100000
O        O    0.07030040  0.33020100  0.77740000 -0.73100000
O        O    0.57030000  0.83020000  0.77740000 -0.73100000
O        O    0.56340000  0.49010000  0.38120100 -0.58700000
O        O    0.06339970  0.99010000  0.38120100 -0.58700000
O        O    0.06339970  0.49010000  0.88120000 -0.58700000
O        O    0.56340000  0.99010000  0.88120000 -0.58700000
O        O    0.57920000  0.35930000  0.28820000 -0.73100000
O        O    0.07919960  0.85930000  0.28820000 -0.73100000
O        O    0.07919960  0.35930000  0.78820000 -0.73100000
O        O    0.57920000  0.85930000  0.78820000 -0.73100000
O        O    0.61340100  0.47500000  0.38160000 -0.58700000
O        O    0.11340000  0.97500100  0.38160000 -0.58700000
O        O    0.11340000  0.47500000  0.88160000 -0.58700000
O        O    0.61340100  0.97500100  0.88160000 -0.58700000
O        O    0.63159900  0.49320000  0.39850000 -0.73100000
O        O    0.13160000  0.99319900  0.39850000 -0.73100000
O        O    0.13160000  0.49320000  0.89850000 -0.73100000
O        O    0.63159900  0.99319900  0.89850000 -0.73100000
F        F    0.19830000  0.43480000  0.00140044 -0.56600000
F        F    0.69829900  0.93480100  0.00140044 -0.56600000
F        F    0.69829900  0.43480000  0.50140000 -0.56600000
F        F    0.19830000  0.93480100  0.50140000 -0.56600000
F        F    0.58450000  0.47569900  0.35750000 -0.56600000
F        F    0.08449960  0.97570000  0.35750000 -0.56600000
F        F    0.08449960  0.47569900  0.85749900 -0.56600000
F        F    0.58450000  0.97570000  0.85749900 -0.56600000
C        C    0.58169900  0.34890000  0.32500100  0.11000000
C        C    0.08170010  0.84889900  0.32500100  0.11000000
C        C    0.08170010  0.34890000  0.82500000  0.11000000
C        C    0.58169900  0.84889900  0.82500000  0.11000000
C        C    0.57090000  0.33560100  0.31160000 -0.27400000
C        C    0.07089980  0.83560000  0.31160000 -0.27400000
C        C    0.07089980  0.33560100  0.81160000 -0.27400000
C        C    0.57090000  0.83560000  0.81160000 -0.27400000
C        C    0.57210100  0.34230000  0.29150000  0.84800000
C        C    0.07210000  0.84230000  0.29150000  0.84800000
C        C    0.07210000  0.34230000  0.79150100  0.84800000
C        C    0.57210100  0.84230000  0.79150100  0.84800000
C        C    0.76610100  0.40999900  0.45920000  0.11000000
C        C    0.26610000  0.91000000  0.45920000  0.11000000
C        C    0.26610000  0.40999900  0.95919900  0.11000000
C        C    0.76610100  0.91000000  0.95919900  0.11000000
C        C    0.75260000  0.41340000  0.47249900 -0.27400000
C        C    0.25260000  0.91340000  0.47249900 -0.27400000
C        C    0.25260000  0.41340000  0.97250000 -0.27400000
C        C    0.75260000  0.91340000  0.97250000 -0.27400000
C        C    0.73630000  0.42240000  0.46619900  0.84800000
C        C    0.23630000  0.92240000  0.46619900  0.84800000
C        C    0.23630000  0.42240000  0.96620000  0.84800000
C        C    0.73630000  0.92240000  0.96620000  0.84800000
C        C    0.67260000  0.45310000  0.39810100 -0.27400000
C        C    0.17260000  0.95310000  0.39810100 -0.27400000
C        C    0.17260000  0.45310000  0.89810000 -0.27400000
C        C    0.67260000  0.95310000  0.89810000 -0.27400000
C        C    0.66150000  0.46890000  0.39490100  0.11000000
C        C    0.16150000  0.96890000  0.39490100  0.11000000
C        C    0.16150000  0.46890000  0.89490000  0.11000000
C        C    0.66150000  0.96890000  0.89490000  0.11000000
C        C    0.64340000  0.46560000  0.38610000 -0.27400000
C        C    0.14340000  0.96559900  0.38610000 -0.27400000
C        C    0.14340000  0.46560000  0.88609900 -0.27400000
C        C    0.64340000  0.96559900  0.88609900 -0.27400000
C        C    0.63840000  0.44709900  0.37980000  0.11000000
C        C    0.13839900  0.94710000  0.37980000  0.11000000
C        C    0.13839900  0.44709900  0.87980000  0.11000000
C        C    0.63840000  0.94710000  0.87980000  0.11000000
C        C    0.65220000  0.43250000  0.38010100 -0.27400000
C        C    0.15219900  0.93250000  0.38010100 -0.27400000
C        C    0.15219900  0.43250000  0.88010000 -0.27400000
C        C    0.65220000  0.93250000  0.88010000 -0.27400000
C        C    0.67030000  0.43730100  0.38620000  0.11000000
C        C    0.17029900  0.93730000  0.38620000  0.11000000
C        C    0.17029900  0.43730100  0.88620000  0.11000000
C        C    0.67030000  0.93730000  0.88620000  0.11000000
C        C    0.64870000  0.41370000  0.37300000  0.84800000
C        C    0.14870000  0.91369900  0.37300000  0.84800000
C        C    0.14870000  0.41370000  0.87300000  0.84800000
C        C    0.64870000  0.91369900  0.87300000  0.84800000
C        C    0.62850000  0.47830000  0.38920000  0.84800000
C        C    0.12850000  0.97829900  0.38920000  0.84800000
C        C    0.12850000  0.47830000  0.88920100  0.84800000
C        C    0.62850000  0.97829900  0.88920100  0.84800000
C        C    0.68730000  0.45239900  0.41140000  0.84800000
C        C    0.18729900  0.95240000  0.41140000  0.84800000
C        C    0.18729900  0.45239900  0.91140100  0.84800000
C        C    0.68730000  0.95240000  0.91140100  0.84800000
C        C    0.62120000  0.48470000  0.46089900 -0.27400000
C        C    0.12120000  0.98469900  0.46089900 -0.27400000
C        C    0.12120000  0.48470000  0.96090000 -0.27400000
C        C    0.62120000  0.98469900  0.96090000 -0.27400000
C        C    0.64340000  0.48240000  0.45930000  0.11000000
C        C    0.14340000  0.98240100  0.45930000  0.11000000
C        C    0.14340000  0.48240000  0.95929900  0.11000000
C        C    0.64340000  0.98240100  0.95929900  0.11000000
C        C    0.05189990  0.00050065  0.38960100  0.84800000
C        C    0.55190100  0.50050000  0.38960100  0.84800000
C        C    0.55190100  0.00050065  0.88960000  0.84800000
C        C    0.05189990  0.50050000  0.88960000  0.84800000
H        H    0.68199200  0.38210700  0.42943300  0.10000000
H        H    0.18199100  0.88210800  0.42943300  0.10000000
H        H    0.18199100  0.38210700  0.92943400  0.10000000
H        H    0.68199200  0.88210800  0.92943400  0.10000000
H        H    0.66667600  0.39904600  0.48306100  0.10000000
H        H    0.16667600  0.89904500  0.48306100  0.10000000
H        H    0.16667600  0.39904600  0.98306000  0.10000000
H        H    0.66667600  0.89904500  0.98306000  0.10000000
H        H    0.85382400  0.43803200  0.35448400  0.10000000
H        H    0.35382300  0.93803200  0.35448400  0.10000000
H        H    0.35382300  0.43803200  0.85448300  0.10000000
H        H    0.85382400  0.93803200  0.85448300  0.10000000
H        H    0.58223200  0.32219600  0.36328600  0.10000000
H        H    0.08223090  0.82219600  0.36328600  0.10000000
H        H    0.08223090  0.32219600  0.86328600  0.10000000
H        H    0.58223200  0.82219600  0.86328600  0.10000000
H        H    0.62388800  0.30578000  0.37526000  0.10000000
H        H    0.12388700  0.80577900  0.37526000  0.10000000
H        H    0.12388700  0.30578000  0.87526100  0.10000000
H        H    0.62388800  0.80577900  0.87526100  0.10000000
H        H    0.76217200  0.40927000  0.44408200  0.10000000
H        H    0.26217300  0.90927000  0.44408200  0.10000000
H        H    0.26217300  0.40927000  0.94408300  0.10000000
H        H    0.76217200  0.90927000  0.94408300  0.10000000
H        H    0.65083900  0.48992900  0.44914700  0.10000000
H        H    0.15084000  0.98992800  0.44914700  0.10000000
H        H    0.15084000  0.48992900  0.94914800  0.10000000
H        H    0.65083900  0.98992800  0.94914800  0.10000000
Cr       Cr   0.04659990  0.30480100  0.47740000  1.62000000
Cr       Cr   0.54660100  0.80480000  0.47740000  1.62000000
Cr       Cr   0.54660100  0.30480100  0.97740000  1.62000000
Cr       Cr   0.04659990  0.80480000  0.97740000  1.62000000
Cr       Cr   0.16000000  0.26359900  0.38029900  1.85900000
Cr       Cr   0.66000100  0.76360000  0.38029900  1.85900000
Cr       Cr   0.66000100  0.26359900  0.88030000  1.85900000
Cr       Cr   0.16000000  0.76360000  0.88030000  1.85900000
O        O    0.95630000  0.34570000  0.43290000 -0.58700000
O        O    0.45630000  0.84569900  0.43290000 -0.58700000
O        O    0.45630000  0.34570000  0.93290000 -0.58700000
O        O    0.95630000  0.84569900  0.93290000 -0.58700000
O        O    0.93500000  0.36530100  0.41440000 -0.58700000
O        O    0.43500000  0.86530000  0.41440000 -0.58700000
O        O    0.43500000  0.36530100  0.91440000 -0.58700000
O        O    0.93500000  0.86530000  0.91440000 -0.58700000
O        O    0.08850060  0.34830100  0.37350000 -0.73100000
O        O    0.58850000  0.84830000  0.37350000 -0.73100000
O        O    0.58850000  0.34830100  0.87350000 -0.73100000
O        O    0.08850060  0.84830000  0.87350000 -0.73100000
O        O    0.15130000  0.37840000  0.35010000 -0.73100000
O        O    0.65130000  0.87840000  0.35010000 -0.73100000
O        O    0.65130000  0.37840000  0.85010000 -0.73100000
O        O    0.15130000  0.87840000  0.85010000 -0.73100000
O        O    0.11610100  0.34040000  0.36539900 -0.73100000
O        O    0.61610000  0.84040100  0.36539900 -0.73100000
O        O    0.61610000  0.34040000  0.86540000 -0.73100000
O        O    0.11610100  0.84040100  0.86540000 -0.73100000
O        O    0.01769960  0.32640000  0.44910100 -0.73100000
O        O    0.51770000  0.82640000  0.44910100 -0.73100000
O        O    0.51770000  0.32640000  0.94910000 -0.73100000
O        O    0.01769960  0.82640000  0.94910000 -0.73100000
O        O    0.05189990  0.31140000  0.41090100 -0.73100000
O        O    0.55190100  0.81140000  0.41090100 -0.73100000
O        O    0.55190100  0.31140000  0.91090000 -0.73100000
O        O    0.05189990  0.81140000  0.91090000 -0.73100000
O        O    0.02660010  0.32240000  0.47800000 -0.58700000
O        O    0.52659900  0.82239900  0.47800000 -0.58700000
O        O    0.52659900  0.32240000  0.97800000 -0.58700000
O        O    0.02660010  0.82239900  0.97800000 -0.58700000
O        O    0.98789900  0.22229900  0.46580000 -0.73100000
O        O    0.48790000  0.72230000  0.46580000 -0.73100000
O        O    0.48790000  0.22229900  0.96580000 -0.73100000
O        O    0.98789900  0.72230000  0.96580000 -0.73100000
O        O    0.06979980  0.29620000  0.47530000 -0.58700000
O        O    0.56980000  0.79620000  0.47530000 -0.58700000
O        O    0.56980000  0.29620000  0.97530000 -0.58700000
O        O    0.06979980  0.79620000  0.97530000 -0.58700000
O        O    0.05950010  0.28470100  0.42390000 -0.73100000
O        O    0.55949900  0.78470000  0.42390000 -0.73100000
O        O    0.55949900  0.28470100  0.92390000 -0.73100000
O        O    0.05950010  0.78470000  0.92390000 -0.73100000
O        O    0.19670100  0.24869900  0.40840000 -0.73100000
O        O    0.69670000  0.74870000  0.40840000 -0.73100000
O        O    0.69670000  0.24869900  0.90839900 -0.73100000
O        O    0.19670100  0.74870000  0.90839900 -0.73100000
O        O    0.17970100  0.41980000  0.27739900 -0.73100000
O        O    0.67970000  0.91980100  0.27739900 -0.73100000
O        O    0.67970000  0.41980000  0.77740000 -0.73100000
O        O    0.17970100  0.91980100  0.77740000 -0.73100000
O        O    0.18660000  0.25990000  0.38120100 -0.73100000
O        O    0.68660100  0.75989900  0.38120100 -0.73100000
O        O    0.68660100  0.25990000  0.88120000 -0.73100000
O        O    0.18660000  0.75989900  0.88120000 -0.73100000
O        O    0.17080000  0.39070100  0.28820000 -0.58700000
O        O    0.67079900  0.89070000  0.28820000 -0.58700000
O        O    0.67079900  0.39070100  0.78820000 -0.58700000
O        O    0.17080000  0.89070000  0.78820000 -0.58700000
O        O    0.13660000  0.27500000  0.38160000 -0.73100000
O        O    0.63660000  0.77500000  0.38160000 -0.73100000
O        O    0.63660000  0.27500000  0.88160000 -0.73100000
O        O    0.13660000  0.77500000  0.88160000 -0.73100000
O        O    0.11840000  0.25680000  0.39850000 -0.73100000
O        O    0.61840000  0.75680000  0.39850000 -0.73100000
O        O    0.61840000  0.25680000  0.89850000 -0.73100000
O        O    0.11840000  0.75680000  0.89850000 -0.73100000
F        F    0.55170000  0.31520000  0.00140044 -0.56600000
F        F    0.05169970  0.81520000  0.00140044 -0.56600000
F        F    0.05169970  0.31520000  0.50140000 -0.56600000
F        F    0.55170000  0.81520000  0.50140000 -0.56600000
C        C    0.16830000  0.40110000  0.32500100  0.11000000
C        C    0.66830000  0.90110000  0.32500100  0.11000000
C        C    0.66830000  0.40110000  0.82500000  0.11000000
C        C    0.16830000  0.90110000  0.82500000  0.11000000
C        C    0.17910000  0.41440000  0.31160000 -0.27400000
C        C    0.67910100  0.91440000  0.31160000 -0.27400000
C        C    0.67910100  0.41440000  0.81160000 -0.27400000
C        C    0.17910000  0.91440000  0.81160000 -0.27400000
C        C    0.17790000  0.40770100  0.29150000  0.84800000
C        C    0.67790000  0.90770000  0.29150000  0.84800000
C        C    0.67790000  0.40770100  0.79150100  0.84800000
C        C    0.17790000  0.90770000  0.79150100  0.84800000
C        C    0.98390000  0.33999900  0.45920000  0.11000000
C        C    0.48390000  0.84000000  0.45920000  0.11000000
C        C    0.48390000  0.33999900  0.95919900  0.11000000
C        C    0.98390000  0.84000000  0.95919900  0.11000000
C        C    0.99739900  0.33660100  0.47249900 -0.27400000
C        C    0.49740000  0.83660000  0.47249900 -0.27400000
C        C    0.49740000  0.33660100  0.97250000 -0.27400000
C        C    0.99739900  0.83660000  0.97250000 -0.27400000
C        C    0.01369990  0.32760000  0.46619900  0.84800000
C        C    0.51370100  0.82760100  0.46619900  0.84800000
C        C    0.51370100  0.32760000  0.96620000  0.84800000
C        C    0.01369990  0.82760100  0.96620000  0.84800000
C        C    0.07740000  0.29690000  0.39810100 -0.27400000
C        C    0.57740100  0.79690100  0.39810100 -0.27400000
C        C    0.57740100  0.29690000  0.89810000 -0.27400000
C        C    0.07740000  0.79690100  0.89810000 -0.27400000
C        C    0.08850060  0.28110000  0.39490100  0.11000000
C        C    0.58850000  0.78109900  0.39490100  0.11000000
C        C    0.58850000  0.28110000  0.89490000  0.11000000
C        C    0.08850060  0.78109900  0.89490000  0.11000000
C        C    0.10659900  0.28440000  0.38610000 -0.27400000
C        C    0.60660000  0.78440000  0.38610000 -0.27400000
C        C    0.60660000  0.28440000  0.88609900 -0.27400000
C        C    0.10659900  0.78440000  0.88609900 -0.27400000
C        C    0.11160000  0.30289900  0.37980000  0.11000000
C        C    0.61160000  0.80290000  0.37980000  0.11000000
C        C    0.61160000  0.30289900  0.87980000  0.11000000
C        C    0.11160000  0.80290000  0.87980000  0.11000000
C        C    0.09780030  0.31750100  0.38010100 -0.27400000
C        C    0.59780000  0.81750000  0.38010100 -0.27400000
C        C    0.59780000  0.31750100  0.88010000 -0.27400000
C        C    0.09780030  0.81750000  0.88010000 -0.27400000
C        C    0.07970020  0.31270000  0.38620000  0.11000000
C        C    0.57970000  0.81270100  0.38620000  0.11000000
C        C    0.57970000  0.31270000  0.88620000  0.11000000
C        C    0.07970020  0.81270100  0.88620000  0.11000000
C        C    0.10129900  0.33630000  0.37300000  0.84800000
C        C    0.60130000  0.83629900  0.37300000  0.84800000
C        C    0.60130000  0.33630000  0.87300000  0.84800000
C        C    0.10129900  0.83629900  0.87300000  0.84800000
C        C    0.12149900  0.27170000  0.38920000  0.84800000
C        C    0.62150000  0.77170000  0.38920000  0.84800000
C        C    0.62150000  0.27170000  0.88920100  0.84800000
C        C    0.12149900  0.77170000  0.88920100  0.84800000
C        C    0.06270020  0.29760000  0.41140000  0.84800000
C        C    0.56269900  0.79760000  0.41140000  0.84800000
C        C    0.56269900  0.29760000  0.91140100  0.84800000
C        C    0.06270020  0.79760000  0.91140100  0.84800000
C        C    0.12880100  0.26530000  0.46089900 -0.27400000
C        C    0.62880000  0.76530000  0.46089900 -0.27400000
C        C    0.62880000  0.26530000  0.96090000 -0.27400000
C        C    0.12880100  0.76530000  0.96090000 -0.27400000
C        C    0.10659900  0.26760000  0.45930000  0.11000000
C        C    0.60660000  0.76760000  0.45930000  0.11000000
C        C    0.60660000  0.26760000  0.95929900  0.11000000
C        C    0.10659900  0.76760000  0.95929900  0.11000000
C        C    0.19810000  0.24950000  0.38960100  0.84800000
C        C    0.69810000  0.74950000  0.38960100  0.84800000
C        C    0.69810000  0.24950000  0.88960000  0.84800000
C        C    0.19810000  0.74950000  0.88960000  0.84800000
H        H    0.06800840  0.36789200  0.42943300  0.10000000
H        H    0.56800900  0.86789200  0.42943300  0.10000000
H        H    0.56800900  0.36789200  0.92943400  0.10000000
H        H    0.06800840  0.86789200  0.92943400  0.10000000
H        H    0.08332410  0.35095500  0.48306100  0.10000000
H        H    0.58332500  0.85095400  0.48306100  0.10000000
H        H    0.58332500  0.35095500  0.98306000  0.10000000
H        H    0.08332410  0.85095400  0.98306000  0.10000000
H        H    0.16776900  0.42780300  0.36328600  0.10000000
H        H    0.66776800  0.92780400  0.36328600  0.10000000
H        H    0.66776800  0.42780300  0.86328600  0.10000000
H        H    0.16776900  0.92780400  0.86328600  0.10000000
H        H    0.12611200  0.44422000  0.37526000  0.10000000
H        H    0.62611200  0.94422000  0.37526000  0.10000000
H        H    0.62611200  0.44422000  0.87526100  0.10000000
H        H    0.12611200  0.94422000  0.87526100  0.10000000
H        H    0.98782700  0.34072900  0.44408200  0.10000000
H        H    0.48782700  0.84073000  0.44408200  0.10000000
H        H    0.48782700  0.34072900  0.94408300  0.10000000
H        H    0.98782700  0.84073000  0.94408300  0.10000000
H        H    0.09916100  0.26007200  0.44914700  0.10000000
H        H    0.59916000  0.76007100  0.44914700  0.10000000
H        H    0.59916000  0.26007200  0.94914800  0.10000000
H        H    0.09916100  0.76007100  0.94914800  0.10000000
Cr       Cr   0.04659990  0.44520000  0.27260000  1.85900000
Cr       Cr   0.54660100  0.94520000  0.27260000  1.85900000
Cr       Cr   0.54660100  0.44520000  0.77259900  1.85900000
Cr       Cr   0.04659990  0.94520000  0.77259900  1.85900000
Cr       Cr   0.16000000  0.48640000  0.36969900  1.85900000
Cr       Cr   0.66000100  0.98640000  0.36969900  1.85900000
Cr       Cr   0.66000100  0.48640000  0.86970000  1.85900000
Cr       Cr   0.16000000  0.98640000  0.86970000  1.85900000
O        O    0.95630000  0.40430000  0.31710000 -0.73100000
O        O    0.45630000  0.90430000  0.31710000 -0.73100000
O        O    0.45630000  0.40430000  0.81709900 -0.73100000
O        O    0.95630000  0.90430000  0.81709900 -0.73100000
O        O    0.93500000  0.38470000  0.33560100 -0.73100000
O        O    0.43500000  0.88470000  0.33560100 -0.73100000
O        O    0.43500000  0.38470000  0.83560000 -0.73100000
O        O    0.93500000  0.88470000  0.83560000 -0.73100000
O        O    0.08850060  0.40170000  0.37650000 -0.73100000
O        O    0.58850000  0.90170000  0.37650000 -0.73100000
O        O    0.58850000  0.40170000  0.87649900 -0.73100000
O        O    0.08850060  0.90170000  0.87649900 -0.73100000
O        O    0.15130000  0.37160100  0.39990000 -0.58700000
O        O    0.65130000  0.87160000  0.39990000 -0.58700000
O        O    0.65130000  0.37160100  0.89989900 -0.58700000
O        O    0.15130000  0.87160000  0.89989900 -0.58700000
O        O    0.11610100  0.40960000  0.38460000 -0.58700000
O        O    0.61610000  0.90960000  0.38460000 -0.58700000
O        O    0.61610000  0.40960000  0.88460000 -0.58700000
O        O    0.11610100  0.90960000  0.88460000 -0.58700000
O        O    0.01769960  0.42360100  0.30090000 -0.73100000
O        O    0.51770000  0.92360000  0.30090000 -0.73100000
O        O    0.51770000  0.42360100  0.80090000 -0.73100000
O        O    0.01769960  0.92360000  0.80090000 -0.73100000
O        O    0.05189990  0.43859900  0.33910000 -0.73100000
O        O    0.55190100  0.93860000  0.33910000 -0.73100000
O        O    0.55190100  0.43859900  0.83910000 -0.73100000
O        O    0.05189990  0.93860000  0.83910000 -0.73100000
O        O    0.02660010  0.42760000  0.27200100 -0.73100000
O        O    0.52659900  0.92760000  0.27200100 -0.73100000
O        O    0.52659900  0.42760000  0.77200000 -0.73100000
O        O    0.02660010  0.92760000  0.77200000 -0.73100000
O        O    0.48790000  0.02770020  0.28420000 -0.73100000
O        O    0.98789900  0.52769900  0.28420000 -0.73100000
O        O    0.98789900  0.02770020  0.78420100 -0.73100000
O        O    0.48790000  0.52769900  0.78420100 -0.73100000
O        O    0.06979980  0.45380000  0.27470000 -0.73100000
O        O    0.56980000  0.95380100  0.27470000 -0.73100000
O        O    0.56980000  0.45380000  0.77469900 -0.73100000
O        O    0.06979980  0.95380100  0.77469900 -0.73100000
O        O    0.05950010  0.46530000  0.32609900 -0.58700000
O        O    0.55949900  0.96530000  0.32609900 -0.58700000
O        O    0.55949900  0.46530000  0.82610000 -0.58700000
O        O    0.05950010  0.96530000  0.82610000 -0.58700000
O        O    0.69670000  0.00130031  0.34160000 -0.58700000
O        O    0.19670100  0.50130000  0.34160000 -0.58700000
O        O    0.19670100  0.00130031  0.84159900 -0.58700000
O        O    0.69670000  0.50130000  0.84159900 -0.58700000
O        O    0.17970100  0.33020100  0.47260000 -0.58700000
O        O    0.67970000  0.83020000  0.47260000 -0.58700000
O        O    0.67970000  0.33020100  0.97260000 -0.58700000
O        O    0.17970100  0.83020000  0.97260000 -0.58700000
O        O    0.18660000  0.49010000  0.36880000 -0.73100000
O        O    0.68660100  0.99010000  0.36880000 -0.73100000
O        O    0.68660100  0.49010000  0.86880000 -0.73100000
O        O    0.18660000  0.99010000  0.86880000 -0.73100000
O        O    0.17080000  0.35930000  0.46180100 -0.73100000
O        O    0.67079900  0.85930000  0.46180100 -0.73100000
O        O    0.67079900  0.35930000  0.96180000 -0.73100000
O        O    0.17080000  0.85930000  0.96180000 -0.73100000
O        O    0.13660000  0.47500000  0.36840100 -0.73100000
O        O    0.63660000  0.97500100  0.36840100 -0.73100000
O        O    0.63660000  0.47500000  0.86840000 -0.73100000
O        O    0.13660000  0.97500100  0.86840000 -0.73100000
O        O    0.11840000  0.49320000  0.35150100 -0.73100000
O        O    0.61840000  0.99319900  0.35150100 -0.73100000
O        O    0.61840000  0.49320000  0.85150000 -0.73100000
O        O    0.11840000  0.99319900  0.85150000 -0.73100000
C        C    0.16830000  0.34890000  0.42500000  0.11000000
C        C    0.66830000  0.84889900  0.42500000  0.11000000
C        C    0.66830000  0.34890000  0.92500000  0.11000000
C        C    0.16830000  0.84889900  0.92500000  0.11000000
C        C    0.17910000  0.33560100  0.43840100 -0.27400000
C        C    0.67910100  0.83560000  0.43840100 -0.27400000
C        C    0.67910100  0.33560100  0.93840000 -0.27400000
C        C    0.17910000  0.83560000  0.93840000 -0.27400000
C        C    0.17790000  0.34230000  0.45850100  0.84800000
C        C    0.67790000  0.84230000  0.45850100  0.84800000
C        C    0.67790000  0.34230000  0.95850000  0.84800000
C        C    0.17790000  0.84230000  0.95850000  0.84800000
C        C    0.98390000  0.40999900  0.29080000  0.11000000
C        C    0.48390000  0.91000000  0.29080000  0.11000000
C        C    0.48390000  0.40999900  0.79080000  0.11000000
C        C    0.98390000  0.91000000  0.79080000  0.11000000
C        C    0.99739900  0.41340000  0.27750000 -0.27400000
C        C    0.49740000  0.91340000  0.27750000 -0.27400000
C        C    0.49740000  0.41340000  0.77750000 -0.27400000
C        C    0.99739900  0.91340000  0.77750000 -0.27400000
C        C    0.01369990  0.42240000  0.28379900  0.84800000
C        C    0.51370100  0.92240000  0.28379900  0.84800000
C        C    0.51370100  0.42240000  0.78380000  0.84800000
C        C    0.01369990  0.92240000  0.78380000  0.84800000
C        C    0.07740000  0.45310000  0.35190000 -0.27400000
C        C    0.57740100  0.95310000  0.35190000 -0.27400000
C        C    0.57740100  0.45310000  0.85190000 -0.27400000
C        C    0.07740000  0.95310000  0.85190000 -0.27400000
C        C    0.08850060  0.46890000  0.35510000  0.11000000
C        C    0.58850000  0.96890000  0.35510000  0.11000000
C        C    0.58850000  0.46890000  0.85510000  0.11000000
C        C    0.08850060  0.96890000  0.85510000  0.11000000
C        C    0.10659900  0.46560000  0.36390000 -0.27400000
C        C    0.60660000  0.96559900  0.36390000 -0.27400000
C        C    0.60660000  0.46560000  0.86390000 -0.27400000
C        C    0.10659900  0.96559900  0.86390000 -0.27400000
C        C    0.11160000  0.44709900  0.37020000  0.11000000
C        C    0.61160000  0.94710000  0.37020000  0.11000000
C        C    0.61160000  0.44709900  0.87019900  0.11000000
C        C    0.11160000  0.94710000  0.87019900  0.11000000
C        C    0.09780030  0.43250000  0.36990000 -0.27400000
C        C    0.59780000  0.93250000  0.36990000 -0.27400000
C        C    0.59780000  0.43250000  0.86990000 -0.27400000
C        C    0.09780030  0.93250000  0.86990000 -0.27400000
C        C    0.07970020  0.43730100  0.36380000  0.11000000
C        C    0.57970000  0.93730000  0.36380000  0.11000000
C        C    0.57970000  0.43730100  0.86379900  0.11000000
C        C    0.07970020  0.93730000  0.86379900  0.11000000
C        C    0.10129900  0.41370000  0.37699900  0.84800000
C        C    0.60130000  0.91369900  0.37699900  0.84800000
C        C    0.60130000  0.41370000  0.87700000  0.84800000
C        C    0.10129900  0.91369900  0.87700000  0.84800000
C        C    0.12149900  0.47830000  0.36080000  0.84800000
C        C    0.62150000  0.97829900  0.36080000  0.84800000
C        C    0.62150000  0.47830000  0.86080000  0.84800000
C        C    0.12149900  0.97829900  0.86080000  0.84800000
C        C    0.06270020  0.45239900  0.33860000  0.84800000
C        C    0.56269900  0.95240000  0.33860000  0.84800000
C        C    0.56269900  0.45239900  0.83860000  0.84800000
C        C    0.06270020  0.95240000  0.83860000  0.84800000
C        C    0.12880100  0.48470000  0.28909900 -0.27400000
C        C    0.62880000  0.98469900  0.28909900 -0.27400000
C        C    0.62880000  0.48470000  0.78910000 -0.27400000
C        C    0.12880100  0.98469900  0.78910000 -0.27400000
C        C    0.10659900  0.48240000  0.29070000  0.11000000
C        C    0.60660000  0.98240100  0.29070000  0.11000000
C        C    0.60660000  0.48240000  0.79069900  0.11000000
C        C    0.10659900  0.98240100  0.79069900  0.11000000
C        C    0.69810000  0.00050065  0.36040000  0.84800000
C        C    0.19810000  0.50050000  0.36040000  0.84800000
C        C    0.19810000  0.00050065  0.86040000  0.84800000
C        C    0.69810000  0.50050000  0.86040000  0.84800000
H        H    0.06800840  0.38210700  0.32056800  0.10000000
H        H    0.56800900  0.88210800  0.32056800  0.10000000
H        H    0.56800900  0.38210700  0.82056700  0.10000000
H        H    0.06800840  0.88210800  0.82056700  0.10000000
H        H    0.08332410  0.39904600  0.26693900  0.10000000
H        H    0.58332500  0.89904500  0.26693900  0.10000000
H        H    0.58332500  0.39904600  0.76693900  0.10000000
H        H    0.08332410  0.89904500  0.76693900  0.10000000
H        H    0.16776900  0.32219600  0.38671300  0.10000000
H        H    0.66776800  0.82219600  0.38671300  0.10000000
H        H    0.66776800  0.32219600  0.88671400  0.10000000
H        H    0.16776900  0.82219600  0.88671400  0.10000000
H        H    0.19518800  0.31037600  0.43998900  0.10000000
H        H    0.69518700  0.81037700  0.43998900  0.10000000
H        H    0.69518700  0.31037600  0.93999000  0.10000000
H        H    0.19518800  0.81037700  0.93999000  0.10000000
H        H    0.12611200  0.30578000  0.37473900  0.10000000
H        H    0.62611200  0.80577900  0.37473900  0.10000000
H        H    0.62611200  0.30578000  0.87474000  0.10000000
H        H    0.12611200  0.80577900  0.87474000  0.10000000
H        H    0.98782700  0.40927000  0.30591800  0.10000000
H        H    0.48782700  0.90927000  0.30591800  0.10000000
H        H    0.48782700  0.40927000  0.80591800  0.10000000
H        H    0.98782700  0.90927000  0.80591800  0.10000000
H        H    0.09916100  0.48992900  0.30085300  0.10000000
H        H    0.59916000  0.98992800  0.30085300  0.10000000
H        H    0.59916000  0.48992900  0.80085200  0.10000000
H        H    0.09916100  0.98992800  0.80085200  0.10000000
Cr       Cr   0.27260000  0.44520000  0.04659990  1.85900000
Cr       Cr   0.77259900  0.94520000  0.04659990  1.85900000
Cr       Cr   0.77259900  0.44520000  0.54660100  1.85900000
Cr       Cr   0.27260000  0.94520000  0.54660100  1.85900000
Cr       Cr   0.36969900  0.48640000  0.16000000  1.62000000
Cr       Cr   0.86970000  0.98640000  0.16000000  1.62000000
Cr       Cr   0.86970000  0.48640000  0.66000100  1.62000000
Cr       Cr   0.36969900  0.98640000  0.66000100  1.62000000
O        O    0.81709900  0.40430000  0.45630000 -0.73100000
O        O    0.31710000  0.90430000  0.45630000 -0.73100000
O        O    0.31710000  0.40430000  0.95630000 -0.73100000
O        O    0.81709900  0.90430000  0.95630000 -0.73100000
O        O    0.83560000  0.38470000  0.43500000 -0.73100000
O        O    0.33560100  0.88470000  0.43500000 -0.73100000
O        O    0.33560100  0.38470000  0.93500000 -0.73100000
O        O    0.83560000  0.88470000  0.93500000 -0.73100000
O        O    0.37650000  0.40170000  0.08850060 -0.58700000
O        O    0.87649900  0.90170000  0.08850060 -0.58700000
O        O    0.87649900  0.40170000  0.58850000 -0.58700000
O        O    0.37650000  0.90170000  0.58850000 -0.58700000
O        O    0.39990000  0.37160100  0.15130000 -0.73100000
O        O    0.89989900  0.87160000  0.15130000 -0.73100000
O        O    0.89989900  0.37160100  0.65130000 -0.73100000
O        O    0.39990000  0.87160000  0.65130000 -0.73100000
O        O    0.38460000  0.40960000  0.11610100 -0.73100000
O        O    0.88460000  0.90960000  0.11610100 -0.73100000
O        O    0.88460000  0.40960000  0.61610000 -0.73100000
O        O    0.38460000  0.90960000  0.61610000 -0.73100000
O        O    0.30090000  0.42360100  0.01769960 -0.73100000
O        O    0.80090000  0.92360000  0.01769960 -0.73100000
O        O    0.80090000  0.42360100  0.51770000 -0.73100000
O        O    0.30090000  0.92360000  0.51770000 -0.73100000
O        O    0.33910000  0.43859900  0.05189990 -0.73100000
O        O    0.83910000  0.93860000  0.05189990 -0.73100000
O        O    0.83910000  0.43859900  0.55190100 -0.73100000
O        O    0.33910000  0.93860000  0.55190100 -0.73100000
O        O    0.27200100  0.42760000  0.02660010 -0.73100000
O        O    0.77200000  0.92760000  0.02660010 -0.73100000
O        O    0.77200000  0.42760000  0.52659900 -0.73100000
O        O    0.27200100  0.92760000  0.52659900 -0.73100000
O        O    0.28420000  0.02770020  0.48790000 -0.73100000
O        O    0.78420100  0.52769900  0.48790000 -0.73100000
O        O    0.78420100  0.02770020  0.98789900 -0.73100000
O        O    0.28420000  0.52769900  0.98789900 -0.73100000
O        O    0.27470000  0.45380000  0.06979980 -0.73100000
O        O    0.77469900  0.95380100  0.06979980 -0.73100000
O        O    0.77469900  0.45380000  0.56980000 -0.73100000
O        O    0.27470000  0.95380100  0.56980000 -0.73100000
O        O    0.32609900  0.46530000  0.05950010 -0.58700000
O        O    0.82610000  0.96530000  0.05950010 -0.58700000
O        O    0.82610000  0.46530000  0.55949900 -0.58700000
O        O    0.32609900  0.96530000  0.55949900 -0.58700000
O        O    0.84159900  0.00130031  0.19670100 -0.73100000
O        O    0.34160000  0.50130000  0.19670100 -0.73100000
O        O    0.34160000  0.00130031  0.69670000 -0.73100000
O        O    0.84159900  0.50130000  0.69670000 -0.73100000
O        O    0.47260000  0.33020100  0.17970100 -0.58700000
O        O    0.97260000  0.83020000  0.17970100 -0.58700000
O        O    0.97260000  0.33020100  0.67970000 -0.58700000
O        O    0.47260000  0.83020000  0.67970000 -0.58700000
O        O    0.36880000  0.49010000  0.18660000 -0.58700000
O        O    0.86880000  0.99010000  0.18660000 -0.58700000
O        O    0.86880000  0.49010000  0.68660100 -0.58700000
O        O    0.36880000  0.99010000  0.68660100 -0.58700000
O        O    0.46180100  0.35930000  0.17080000 -0.73100000
O        O    0.96180000  0.85930000  0.17080000 -0.73100000
O        O    0.96180000  0.35930000  0.67079900 -0.73100000
O        O    0.46180100  0.85930000  0.67079900 -0.73100000
O        O    0.36840100  0.47500000  0.13660000 -0.58700000
O        O    0.86840000  0.97500100  0.13660000 -0.58700000
O        O    0.86840000  0.47500000  0.63660000 -0.58700000
O        O    0.36840100  0.97500100  0.63660000 -0.58700000
O        O    0.35150100  0.49320000  0.11840000 -0.73100000
O        O    0.85150000  0.99319900  0.11840000 -0.73100000
O        O    0.85150000  0.49320000  0.61840000 -0.73100000
O        O    0.35150100  0.99319900  0.61840000 -0.73100000
F        F    0.39250000  0.47569900  0.16550000 -0.56600000
F        F    0.89249900  0.97570000  0.16550000 -0.56600000
F        F    0.89249900  0.47569900  0.66549900 -0.56600000
F        F    0.39250000  0.97570000  0.66549900 -0.56600000
C        C    0.42500000  0.34890000  0.16830000  0.11000000
C        C    0.92500000  0.84889900  0.16830000  0.11000000
C        C    0.92500000  0.34890000  0.66830000  0.11000000
C        C    0.42500000  0.84889900  0.66830000  0.11000000
C        C    0.43840100  0.33560100  0.17910000 -0.27400000
C        C    0.93840000  0.83560000  0.17910000 -0.27400000
C        C    0.93840000  0.33560100  0.67910100 -0.27400000
C        C    0.43840100  0.83560000  0.67910100 -0.27400000
C        C    0.45850100  0.34230000  0.17790000  0.84800000
C        C    0.95850000  0.84230000  0.17790000  0.84800000
C        C    0.95850000  0.34230000  0.67790000  0.84800000
C        C    0.45850100  0.84230000  0.67790000  0.84800000
C        C    0.79080000  0.40999900  0.48390000  0.11000000
C        C    0.29080000  0.91000000  0.48390000  0.11000000
C        C    0.29080000  0.40999900  0.98390000  0.11000000
C        C    0.79080000  0.91000000  0.98390000  0.11000000
C        C    0.77750000  0.41340000  0.49740000 -0.27400000
C        C    0.27750000  0.91340000  0.49740000 -0.27400000
C        C    0.27750000  0.41340000  0.99739900 -0.27400000
C        C    0.77750000  0.91340000  0.99739900 -0.27400000
C        C    0.28379900  0.42240000  0.01369990  0.84800000
C        C    0.78380000  0.92240000  0.01369990  0.84800000
C        C    0.78380000  0.42240000  0.51370100  0.84800000
C        C    0.28379900  0.92240000  0.51370100  0.84800000
C        C    0.35190000  0.45310000  0.07740000 -0.27400000
C        C    0.85190000  0.95310000  0.07740000 -0.27400000
C        C    0.85190000  0.45310000  0.57740100 -0.27400000
C        C    0.35190000  0.95310000  0.57740100 -0.27400000
C        C    0.35510000  0.46890000  0.08850060  0.11000000
C        C    0.85510000  0.96890000  0.08850060  0.11000000
C        C    0.85510000  0.46890000  0.58850000  0.11000000
C        C    0.35510000  0.96890000  0.58850000  0.11000000
C        C    0.36390000  0.46560000  0.10659900 -0.27400000
C        C    0.86390000  0.96559900  0.10659900 -0.27400000
C        C    0.86390000  0.46560000  0.60660000 -0.27400000
C        C    0.36390000  0.96559900  0.60660000 -0.27400000
C        C    0.37020000  0.44709900  0.11160000  0.11000000
C        C    0.87019900  0.94710000  0.11160000  0.11000000
C        C    0.87019900  0.44709900  0.61160000  0.11000000
C        C    0.37020000  0.94710000  0.61160000  0.11000000
C        C    0.36990000  0.43250000  0.09780030 -0.27400000
C        C    0.86990000  0.93250000  0.09780030 -0.27400000
C        C    0.86990000  0.43250000  0.59780000 -0.27400000
C        C    0.36990000  0.93250000  0.59780000 -0.27400000
C        C    0.36380000  0.43730100  0.07970020  0.11000000
C        C    0.86379900  0.93730000  0.07970020  0.11000000
C        C    0.86379900  0.43730100  0.57970000  0.11000000
C        C    0.36380000  0.93730000  0.57970000  0.11000000
C        C    0.37699900  0.41370000  0.10129900  0.84800000
C        C    0.87700000  0.91369900  0.10129900  0.84800000
C        C    0.87700000  0.41370000  0.60130000  0.84800000
C        C    0.37699900  0.91369900  0.60130000  0.84800000
C        C    0.36080000  0.47830000  0.12149900  0.84800000
C        C    0.86080000  0.97829900  0.12149900  0.84800000
C        C    0.86080000  0.47830000  0.62150000  0.84800000
C        C    0.36080000  0.97829900  0.62150000  0.84800000
C        C    0.33860000  0.45239900  0.06270020  0.84800000
C        C    0.83860000  0.95240000  0.06270020  0.84800000
C        C    0.83860000  0.45239900  0.56269900  0.84800000
C        C    0.33860000  0.95240000  0.56269900  0.84800000
C        C    0.28909900  0.48470000  0.12880100 -0.27400000
C        C    0.78910000  0.98469900  0.12880100 -0.27400000
C        C    0.78910000  0.48470000  0.62880000 -0.27400000
C        C    0.28909900  0.98469900  0.62880000 -0.27400000
C        C    0.29070000  0.48240000  0.10659900  0.11000000
C        C    0.79069900  0.98240100  0.10659900  0.11000000
C        C    0.79069900  0.48240000  0.60660000  0.11000000
C        C    0.29070000  0.98240100  0.60660000  0.11000000
C        C    0.86040000  0.00050065  0.19810000  0.84800000
C        C    0.36040000  0.50050000  0.19810000  0.84800000
C        C    0.36040000  0.00050065  0.69810000  0.84800000
C        C    0.86040000  0.50050000  0.69810000  0.84800000
H        H    0.32056800  0.38210700  0.06800840  0.10000000
H        H    0.82056700  0.88210800  0.06800840  0.10000000
H        H    0.82056700  0.38210700  0.56800900  0.10000000
H        H    0.32056800  0.88210800  0.56800900  0.10000000
H        H    0.26693900  0.39904600  0.08332410  0.10000000
H        H    0.76693900  0.89904500  0.08332410  0.10000000
H        H    0.76693900  0.39904600  0.58332500  0.10000000
H        H    0.26693900  0.89904500  0.58332500  0.10000000
H        H    0.89551600  0.43803200  0.39617600  0.10000000
H        H    0.39551600  0.93803200  0.39617600  0.10000000
H        H    0.39551600  0.43803200  0.89617700  0.10000000
H        H    0.89551600  0.93803200  0.89617700  0.10000000
H        H    0.38671300  0.32219600  0.16776900  0.10000000
H        H    0.88671400  0.82219600  0.16776900  0.10000000
H        H    0.88671400  0.32219600  0.66776800  0.10000000
H        H    0.38671300  0.82219600  0.66776800  0.10000000
H        H    0.43998900  0.31037600  0.19518800  0.10000000
H        H    0.93999000  0.81037700  0.19518800  0.10000000
H        H    0.93999000  0.31037600  0.69518700  0.10000000
H        H    0.43998900  0.81037700  0.69518700  0.10000000
H        H    0.37473900  0.30578000  0.12611200  0.10000000
H        H    0.87474000  0.80577900  0.12611200  0.10000000
H        H    0.87474000  0.30578000  0.62611200  0.10000000
H        H    0.37473900  0.80577900  0.62611200  0.10000000
H        H    0.80591800  0.40927000  0.48782700  0.10000000
H        H    0.30591800  0.90927000  0.48782700  0.10000000
H        H    0.30591800  0.40927000  0.98782700  0.10000000
H        H    0.80591800  0.90927000  0.98782700  0.10000000
H        H    0.30085300  0.48992900  0.09916100  0.10000000
H        H    0.80085200  0.98992800  0.09916100  0.10000000
H        H    0.80085200  0.48992900  0.59916000  0.10000000
H        H    0.30085300  0.98992800  0.59916000  0.10000000
Cr       Cr   0.47740000  0.30480100  0.04659990  1.85900000
Cr       Cr   0.97740000  0.80480000  0.04659990  1.85900000
Cr       Cr   0.97740000  0.30480100  0.54660100  1.85900000
Cr       Cr   0.47740000  0.80480000  0.54660100  1.85900000
Cr       Cr   0.38029900  0.26359900  0.16000000  1.62000000
Cr       Cr   0.88030000  0.76360000  0.16000000  1.62000000
Cr       Cr   0.88030000  0.26359900  0.66000100  1.62000000
Cr       Cr   0.38029900  0.76360000  0.66000100  1.62000000
O        O    0.93290000  0.34570000  0.45630000 -0.73100000
O        O    0.43290000  0.84569900  0.45630000 -0.73100000
O        O    0.43290000  0.34570000  0.95630000 -0.73100000
O        O    0.93290000  0.84569900  0.95630000 -0.73100000
O        O    0.91440000  0.36530100  0.43500000 -0.73100000
O        O    0.41440000  0.86530000  0.43500000 -0.73100000
O        O    0.41440000  0.36530100  0.93500000 -0.73100000
O        O    0.91440000  0.86530000  0.93500000 -0.73100000
O        O    0.37350000  0.34830100  0.08850060 -0.58700000
O        O    0.87350000  0.84830000  0.08850060 -0.58700000
O        O    0.87350000  0.34830100  0.58850000 -0.58700000
O        O    0.37350000  0.84830000  0.58850000 -0.58700000
O        O    0.35010000  0.37840000  0.15130000 -0.73100000
O        O    0.85010000  0.87840000  0.15130000 -0.73100000
O        O    0.85010000  0.37840000  0.65130000 -0.73100000
O        O    0.35010000  0.87840000  0.65130000 -0.73100000
O        O    0.36539900  0.34040000  0.11610100 -0.73100000
O        O    0.86540000  0.84040100  0.11610100 -0.73100000
O        O    0.86540000  0.34040000  0.61610000 -0.73100000
O        O    0.36539900  0.84040100  0.61610000 -0.73100000
O        O    0.44910100  0.32640000  0.01769960 -0.58700000
O        O    0.94910000  0.82640000  0.01769960 -0.58700000
O        O    0.94910000  0.32640000  0.51770000 -0.58700000
O        O    0.44910100  0.82640000  0.51770000 -0.58700000
O        O    0.41090100  0.31140000  0.05189990 -0.58700000
O        O    0.91090000  0.81140000  0.05189990 -0.58700000
O        O    0.91090000  0.31140000  0.55190100 -0.58700000
O        O    0.41090100  0.81140000  0.55190100 -0.58700000
O        O    0.47800000  0.32240000  0.02660010 -0.73100000
O        O    0.97800000  0.82239900  0.02660010 -0.73100000
O        O    0.97800000  0.32240000  0.52659900 -0.73100000
O        O    0.47800000  0.82239900  0.52659900 -0.73100000
O        O    0.96580000  0.22229900  0.48790000 -0.58700000
O        O    0.46580000  0.72230000  0.48790000 -0.58700000
O        O    0.46580000  0.22229900  0.98789900 -0.58700000
O        O    0.96580000  0.72230000  0.98789900 -0.58700000
O        O    0.47530000  0.29620000  0.06979980 -0.73100000
O        O    0.97530000  0.79620000  0.06979980 -0.73100000
O        O    0.97530000  0.29620000  0.56980000 -0.73100000
O        O    0.47530000  0.79620000  0.56980000 -0.73100000
O        O    0.42390000  0.28470100  0.05950010 -0.73100000
O        O    0.92390000  0.78470000  0.05950010 -0.73100000
O        O    0.92390000  0.28470100  0.55949900 -0.73100000
O        O    0.42390000  0.78470000  0.55949900 -0.73100000
O        O    0.40840000  0.24869900  0.19670100 -0.73100000
O        O    0.90839900  0.74870000  0.19670100 -0.73100000
O        O    0.90839900  0.24869900  0.69670000 -0.73100000
O        O    0.40840000  0.74870000  0.69670000 -0.73100000
O        O    0.27739900  0.41980000  0.17970100 -0.58700000
O        O    0.77740000  0.91980100  0.17970100 -0.58700000
O        O    0.77740000  0.41980000  0.67970000 -0.58700000
O        O    0.27739900  0.91980100  0.67970000 -0.58700000
O        O    0.38120100  0.25990000  0.18660000 -0.58700000
O        O    0.88120000  0.75989900  0.18660000 -0.58700000
O        O    0.88120000  0.25990000  0.68660100 -0.58700000
O        O    0.38120100  0.75989900  0.68660100 -0.58700000
O        O    0.28820000  0.39070100  0.17080000 -0.73100000
O        O    0.78820000  0.89070000  0.17080000 -0.73100000
O        O    0.78820000  0.39070100  0.67079900 -0.73100000
O        O    0.28820000  0.89070000  0.67079900 -0.73100000
O        O    0.38160000  0.27500000  0.13660000 -0.58700000
O        O    0.88160000  0.77500000  0.13660000 -0.58700000
O        O    0.88160000  0.27500000  0.63660000 -0.58700000
O        O    0.38160000  0.77500000  0.63660000 -0.58700000
O        O    0.39850000  0.25680000  0.11840000 -0.73100000
O        O    0.89850000  0.75680000  0.11840000 -0.73100000
O        O    0.89850000  0.25680000  0.61840000 -0.73100000
O        O    0.39850000  0.75680000  0.61840000 -0.73100000
F        F    0.35750000  0.27430000  0.16550000 -0.56600000
F        F    0.85749900  0.77430000  0.16550000 -0.56600000
F        F    0.85749900  0.27430000  0.66549900 -0.56600000
F        F    0.35750000  0.77430000  0.66549900 -0.56600000
C        C    0.32500100  0.40110000  0.16830000  0.11000000
C        C    0.82500000  0.90110000  0.16830000  0.11000000
C        C    0.82500000  0.40110000  0.66830000  0.11000000
C        C    0.32500100  0.90110000  0.66830000  0.11000000
C        C    0.31160000  0.41440000  0.17910000 -0.27400000
C        C    0.81160000  0.91440000  0.17910000 -0.27400000
C        C    0.81160000  0.41440000  0.67910100 -0.27400000
C        C    0.31160000  0.91440000  0.67910100 -0.27400000
C        C    0.29150000  0.40770100  0.17790000  0.84800000
C        C    0.79150100  0.90770000  0.17790000  0.84800000
C        C    0.79150100  0.40770100  0.67790000  0.84800000
C        C    0.29150000  0.90770000  0.67790000  0.84800000
C        C    0.95919900  0.33999900  0.48390000  0.11000000
C        C    0.45920000  0.84000000  0.48390000  0.11000000
C        C    0.45920000  0.33999900  0.98390000  0.11000000
C        C    0.95919900  0.84000000  0.98390000  0.11000000
C        C    0.97250000  0.33660100  0.49740000 -0.27400000
C        C    0.47249900  0.83660000  0.49740000 -0.27400000
C        C    0.47249900  0.33660100  0.99739900 -0.27400000
C        C    0.97250000  0.83660000  0.99739900 -0.27400000
C        C    0.46619900  0.32760000  0.01369990  0.84800000
C        C    0.96620000  0.82760100  0.01369990  0.84800000
C        C    0.96620000  0.32760000  0.51370100  0.84800000
C        C    0.46619900  0.82760100  0.51370100  0.84800000
C        C    0.39810100  0.29690000  0.07740000 -0.27400000
C        C    0.89810000  0.79690100  0.07740000 -0.27400000
C        C    0.89810000  0.29690000  0.57740100 -0.27400000
C        C    0.39810100  0.79690100  0.57740100 -0.27400000
C        C    0.39490100  0.28110000  0.08850060  0.11000000
C        C    0.89490000  0.78109900  0.08850060  0.11000000
C        C    0.89490000  0.28110000  0.58850000  0.11000000
C        C    0.39490100  0.78109900  0.58850000  0.11000000
C        C    0.38610000  0.28440000  0.10659900 -0.27400000
C        C    0.88609900  0.78440000  0.10659900 -0.27400000
C        C    0.88609900  0.28440000  0.60660000 -0.27400000
C        C    0.38610000  0.78440000  0.60660000 -0.27400000
C        C    0.37980000  0.30289900  0.11160000  0.11000000
C        C    0.87980000  0.80290000  0.11160000  0.11000000
C        C    0.87980000  0.30289900  0.61160000  0.11000000
C        C    0.37980000  0.80290000  0.61160000  0.11000000
C        C    0.38010100  0.31750100  0.09780030 -0.27400000
C        C    0.88010000  0.81750000  0.09780030 -0.27400000
C        C    0.88010000  0.31750100  0.59780000 -0.27400000
C        C    0.38010100  0.81750000  0.59780000 -0.27400000
C        C    0.38620000  0.31270000  0.07970020  0.11000000
C        C    0.88620000  0.81270100  0.07970020  0.11000000
C        C    0.88620000  0.31270000  0.57970000  0.11000000
C        C    0.38620000  0.81270100  0.57970000  0.11000000
C        C    0.37300000  0.33630000  0.10129900  0.84800000
C        C    0.87300000  0.83629900  0.10129900  0.84800000
C        C    0.87300000  0.33630000  0.60130000  0.84800000
C        C    0.37300000  0.83629900  0.60130000  0.84800000
C        C    0.38920000  0.27170000  0.12149900  0.84800000
C        C    0.88920100  0.77170000  0.12149900  0.84800000
C        C    0.88920100  0.27170000  0.62150000  0.84800000
C        C    0.38920000  0.77170000  0.62150000  0.84800000
C        C    0.41140000  0.29760000  0.06270020  0.84800000
C        C    0.91140100  0.79760000  0.06270020  0.84800000
C        C    0.91140100  0.29760000  0.56269900  0.84800000
C        C    0.41140000  0.79760000  0.56269900  0.84800000
C        C    0.46089900  0.26530000  0.12880100 -0.27400000
C        C    0.96090000  0.76530000  0.12880100 -0.27400000
C        C    0.96090000  0.26530000  0.62880000 -0.27400000
C        C    0.46089900  0.76530000  0.62880000 -0.27400000
C        C    0.45930000  0.26760000  0.10659900  0.11000000
C        C    0.95929900  0.76760000  0.10659900  0.11000000
C        C    0.95929900  0.26760000  0.60660000  0.11000000
C        C    0.45930000  0.76760000  0.60660000  0.11000000
C        C    0.38960100  0.24950000  0.19810000  0.84800000
C        C    0.88960000  0.74950000  0.19810000  0.84800000
C        C    0.88960000  0.24950000  0.69810000  0.84800000
C        C    0.38960100  0.74950000  0.69810000  0.84800000
H        H    0.42943300  0.36789200  0.06800840  0.10000000
H        H    0.92943400  0.86789200  0.06800840  0.10000000
H        H    0.92943400  0.36789200  0.56800900  0.10000000
H        H    0.42943300  0.86789200  0.56800900  0.10000000
H        H    0.48306100  0.35095500  0.08332410  0.10000000
H        H    0.98306000  0.85095400  0.08332410  0.10000000
H        H    0.98306000  0.35095500  0.58332500  0.10000000
H        H    0.48306100  0.85095400  0.58332500  0.10000000
H        H    0.36328600  0.42780300  0.16776900  0.10000000
H        H    0.86328600  0.92780400  0.16776900  0.10000000
H        H    0.86328600  0.42780300  0.66776800  0.10000000
H        H    0.36328600  0.92780400  0.66776800  0.10000000
H        H    0.37526000  0.44422000  0.12611200  0.10000000
H        H    0.87526100  0.94422000  0.12611200  0.10000000
H        H    0.87526100  0.44422000  0.62611200  0.10000000
H        H    0.37526000  0.94422000  0.62611200  0.10000000
H        H    0.94408300  0.34072900  0.48782700  0.10000000
H        H    0.44408200  0.84073000  0.48782700  0.10000000
H        H    0.44408200  0.34072900  0.98782700  0.10000000
H        H    0.94408300  0.84073000  0.98782700  0.10000000
H        H    0.44914700  0.26007200  0.09916100  0.10000000
H        H    0.94914800  0.76007100  0.09916100  0.10000000
H        H    0.94914800  0.26007200  0.59916000  0.10000000
H        H    0.44914700  0.76007100  0.59916000  0.10000000
Cr       Cr   0.97740000  0.44520000  0.20340000  1.85900000
Cr       Cr   0.47740000  0.94520000  0.20340000  1.85900000
Cr       Cr   0.47740000  0.44520000  0.70340000  1.85900000
Cr       Cr   0.97740000  0.94520000  0.70340000  1.85900000
Cr       Cr   0.88030000  0.48640000  0.08999980  1.85900000
Cr       Cr   0.38029900  0.98640000  0.08999980  1.85900000
Cr       Cr   0.38029900  0.48640000  0.59000100  1.85900000
Cr       Cr   0.88030000  0.98640000  0.59000100  1.85900000
O        O    0.93290000  0.40430000  0.29370000 -0.58700000
O        O    0.43290000  0.90430000  0.29370000 -0.58700000
O        O    0.43290000  0.40430000  0.79370100 -0.58700000
O        O    0.93290000  0.90430000  0.79370100 -0.58700000
O        O    0.91440000  0.38470000  0.31500000 -0.58700000
O        O    0.41440000  0.88470000  0.31500000 -0.58700000
O        O    0.41440000  0.38470000  0.81499900 -0.58700000
O        O    0.91440000  0.88470000  0.81499900 -0.58700000
O        O    0.87350000  0.40170000  0.16150000 -0.73100000
O        O    0.37350000  0.90170000  0.16150000 -0.73100000
O        O    0.37350000  0.40170000  0.66150000 -0.73100000
O        O    0.87350000  0.90170000  0.66150000 -0.73100000
O        O    0.85010000  0.37160100  0.09870010 -0.58700000
O        O    0.35010000  0.87160000  0.09870010 -0.58700000
O        O    0.35010000  0.37160100  0.59869900 -0.58700000
O        O    0.85010000  0.87160000  0.59869900 -0.58700000
O        O    0.86540000  0.40960000  0.13390000 -0.58700000
O        O    0.36539900  0.90960000  0.13390000 -0.58700000
O        O    0.36539900  0.40960000  0.63390000 -0.58700000
O        O    0.86540000  0.90960000  0.63390000 -0.58700000
O        O    0.94910000  0.42360100  0.23230000 -0.73100000
O        O    0.44910100  0.92360000  0.23230000 -0.73100000
O        O    0.44910100  0.42360100  0.73229900 -0.73100000
O        O    0.94910000  0.92360000  0.73229900 -0.73100000
O        O    0.91090000  0.43859900  0.19810000 -0.73100000
O        O    0.41090100  0.93860000  0.19810000 -0.73100000
O        O    0.41090100  0.43859900  0.69810000 -0.73100000
O        O    0.91090000  0.93860000  0.69810000 -0.73100000
O        O    0.97800000  0.42760000  0.22340000 -0.73100000
O        O    0.47800000  0.92760000  0.22340000 -0.73100000
O        O    0.47800000  0.42760000  0.72340000 -0.73100000
O        O    0.97800000  0.92760000  0.72340000 -0.73100000
O        O    0.46580000  0.02770020  0.26210000 -0.73100000
O        O    0.96580000  0.52769900  0.26210000 -0.73100000
O        O    0.96580000  0.02770020  0.76210000 -0.73100000
O        O    0.46580000  0.52769900  0.76210000 -0.73100000
O        O    0.97530000  0.45380000  0.18020000 -0.73100000
O        O    0.47530000  0.95380100  0.18020000 -0.73100000
O        O    0.47530000  0.45380000  0.68020100 -0.73100000
O        O    0.97530000  0.95380100  0.68020100 -0.73100000
O        O    0.92390000  0.46530000  0.19050000 -0.58700000
O        O    0.42390000  0.96530000  0.19050000 -0.58700000
O        O    0.42390000  0.46530000  0.69050000 -0.58700000
O        O    0.92390000  0.96530000  0.69050000 -0.58700000
O        O    0.40840000  0.00130031  0.05330040 -0.58700000
O        O    0.90839900  0.50130000  0.05330040 -0.58700000
O        O    0.90839900  0.00130031  0.55330000 -0.58700000
O        O    0.40840000  0.50130000  0.55330000 -0.58700000
O        O    0.77740000  0.33020100  0.07030040 -0.73100000
O        O    0.27739900  0.83020000  0.07030040 -0.73100000
O        O    0.27739900  0.33020100  0.57030000 -0.73100000
O        O    0.77740000  0.83020000  0.57030000 -0.73100000
O        O    0.88120000  0.49010000  0.06339970 -0.73100000
O        O    0.38120100  0.99010000  0.06339970 -0.73100000
O        O    0.38120100  0.49010000  0.56340000 -0.73100000
O        O    0.88120000  0.99010000  0.56340000 -0.73100000
O        O    0.78820000  0.35930000  0.07919960 -0.73100000
O        O    0.28820000  0.85930000  0.07919960 -0.73100000
O        O    0.28820000  0.35930000  0.57920000 -0.73100000
O        O    0.78820000  0.85930000  0.57920000 -0.73100000
O        O    0.88160000  0.47500000  0.11340000 -0.73100000
O        O    0.38160000  0.97500100  0.11340000 -0.73100000
O        O    0.38160000  0.47500000  0.61340100 -0.73100000
O        O    0.88160000  0.97500100  0.61340100 -0.73100000
O        O    0.89850000  0.49320000  0.13160000 -0.73100000
O        O    0.39850000  0.99319900  0.13160000 -0.73100000
O        O    0.39850000  0.49320000  0.63159900 -0.73100000
O        O    0.89850000  0.99319900  0.63159900 -0.73100000
C        C    0.82500000  0.34890000  0.08170010  0.11000000
C        C    0.32500100  0.84889900  0.08170010  0.11000000
C        C    0.32500100  0.34890000  0.58169900  0.11000000
C        C    0.82500000  0.84889900  0.58169900  0.11000000
C        C    0.81160000  0.33560100  0.07089980 -0.27400000
C        C    0.31160000  0.83560000  0.07089980 -0.27400000
C        C    0.31160000  0.33560100  0.57090000 -0.27400000
C        C    0.81160000  0.83560000  0.57090000 -0.27400000
C        C    0.79150100  0.34230000  0.07210000  0.84800000
C        C    0.29150000  0.84230000  0.07210000  0.84800000
C        C    0.29150000  0.34230000  0.57210100  0.84800000
C        C    0.79150100  0.84230000  0.57210100  0.84800000
C        C    0.95919900  0.40999900  0.26610000  0.11000000
C        C    0.45920000  0.91000000  0.26610000  0.11000000
C        C    0.45920000  0.40999900  0.76610100  0.11000000
C        C    0.95919900  0.91000000  0.76610100  0.11000000
C        C    0.97250000  0.41340000  0.25260000 -0.27400000
C        C    0.47249900  0.91340000  0.25260000 -0.27400000
C        C    0.47249900  0.41340000  0.75260000 -0.27400000
C        C    0.97250000  0.91340000  0.75260000 -0.27400000
C        C    0.96620000  0.42240000  0.23630000  0.84800000
C        C    0.46619900  0.92240000  0.23630000  0.84800000
C        C    0.46619900  0.42240000  0.73630000  0.84800000
C        C    0.96620000  0.92240000  0.73630000  0.84800000
C        C    0.89810000  0.45310000  0.17260000 -0.27400000
C        C    0.39810100  0.95310000  0.17260000 -0.27400000
C        C    0.39810100  0.45310000  0.67260000 -0.27400000
C        C    0.89810000  0.95310000  0.67260000 -0.27400000
C        C    0.89490000  0.46890000  0.16150000  0.11000000
C        C    0.39490100  0.96890000  0.16150000  0.11000000
C        C    0.39490100  0.46890000  0.66150000  0.11000000
C        C    0.89490000  0.96890000  0.66150000  0.11000000
C        C    0.88609900  0.46560000  0.14340000 -0.27400000
C        C    0.38610000  0.96559900  0.14340000 -0.27400000
C        C    0.38610000  0.46560000  0.64340000 -0.27400000
C        C    0.88609900  0.96559900  0.64340000 -0.27400000
C        C    0.87980000  0.44709900  0.13839900  0.11000000
C        C    0.37980000  0.94710000  0.13839900  0.11000000
C        C    0.37980000  0.44709900  0.63840000  0.11000000
C        C    0.87980000  0.94710000  0.63840000  0.11000000
C        C    0.88010000  0.43250000  0.15219900 -0.27400000
C        C    0.38010100  0.93250000  0.15219900 -0.27400000
C        C    0.38010100  0.43250000  0.65220000 -0.27400000
C        C    0.88010000  0.93250000  0.65220000 -0.27400000
C        C    0.88620000  0.43730100  0.17029900  0.11000000
C        C    0.38620000  0.93730000  0.17029900  0.11000000
C        C    0.38620000  0.43730100  0.67030000  0.11000000
C        C    0.88620000  0.93730000  0.67030000  0.11000000
C        C    0.87300000  0.41370000  0.14870000  0.84800000
C        C    0.37300000  0.91369900  0.14870000  0.84800000
C        C    0.37300000  0.41370000  0.64870000  0.84800000
C        C    0.87300000  0.91369900  0.64870000  0.84800000
C        C    0.88920100  0.47830000  0.12850000  0.84800000
C        C    0.38920000  0.97829900  0.12850000  0.84800000
C        C    0.38920000  0.47830000  0.62850000  0.84800000
C        C    0.88920100  0.97829900  0.62850000  0.84800000
C        C    0.91140100  0.45239900  0.18729900  0.84800000
C        C    0.41140000  0.95240000  0.18729900  0.84800000
C        C    0.41140000  0.45239900  0.68730000  0.84800000
C        C    0.91140100  0.95240000  0.68730000  0.84800000
C        C    0.96090000  0.48470000  0.12120000 -0.27400000
C        C    0.46089900  0.98469900  0.12120000 -0.27400000
C        C    0.46089900  0.48470000  0.62120000 -0.27400000
C        C    0.96090000  0.98469900  0.62120000 -0.27400000
C        C    0.95929900  0.48240000  0.14340000  0.11000000
C        C    0.45930000  0.98240100  0.14340000  0.11000000
C        C    0.45930000  0.48240000  0.64340000  0.11000000
C        C    0.95929900  0.98240100  0.64340000  0.11000000
C        C    0.38960100  0.00050065  0.05189990  0.84800000
C        C    0.88960000  0.50050000  0.05189990  0.84800000
C        C    0.88960000  0.00050065  0.55190100  0.84800000
C        C    0.38960100  0.50050000  0.55190100  0.84800000
H        H    0.92943400  0.38210700  0.18199100  0.10000000
H        H    0.42943300  0.88210800  0.18199100  0.10000000
H        H    0.42943300  0.38210700  0.68199200  0.10000000
H        H    0.92943400  0.88210800  0.68199200  0.10000000
H        H    0.98306000  0.39904600  0.16667600  0.10000000
H        H    0.48306100  0.89904500  0.16667600  0.10000000
H        H    0.48306100  0.39904600  0.66667600  0.10000000
H        H    0.98306000  0.89904500  0.66667600  0.10000000
H        H    0.86328600  0.32219600  0.08223090  0.10000000
H        H    0.36328600  0.82219600  0.08223090  0.10000000
H        H    0.36328600  0.32219600  0.58223200  0.10000000
H        H    0.86328600  0.82219600  0.58223200  0.10000000
H        H    0.81001100  0.31037600  0.05481190  0.10000000
H        H    0.31001100  0.81037700  0.05481190  0.10000000
H        H    0.31001100  0.31037600  0.55481300  0.10000000
H        H    0.81001100  0.81037700  0.55481300  0.10000000
H        H    0.87526100  0.30578000  0.12388700  0.10000000
H        H    0.37526000  0.80577900  0.12388700  0.10000000
H        H    0.37526000  0.30578000  0.62388800  0.10000000
H        H    0.87526100  0.80577900  0.62388800  0.10000000
H        H    0.94408300  0.40927000  0.26217300  0.10000000
H        H    0.44408200  0.90927000  0.26217300  0.10000000
H        H    0.44408200  0.40927000  0.76217200  0.10000000
H        H    0.94408300  0.90927000  0.76217200  0.10000000
H        H    0.94914800  0.48992900  0.15084000  0.10000000
H        H    0.44914700  0.98992800  0.15084000  0.10000000
H        H    0.44914700  0.48992900  0.65083900  0.10000000
H        H    0.94914800  0.98992800  0.65083900  0.10000000
Cr       Cr   0.77259900  0.30480100  0.20340000  1.85900000
Cr       Cr   0.27260000  0.80480000  0.20340000  1.85900000
Cr       Cr   0.27260000  0.30480100  0.70340000  1.85900000
Cr       Cr   0.77259900  0.80480000  0.70340000  1.85900000
Cr       Cr   0.86970000  0.26359900  0.08999980  1.85900000
Cr       Cr   0.36969900  0.76360000  0.08999980  1.85900000
Cr       Cr   0.36969900  0.26359900  0.59000100  1.85900000
Cr       Cr   0.86970000  0.76360000  0.59000100  1.85900000
O        O    0.81709900  0.34570000  0.29370000 -0.58700000
O        O    0.31710000  0.84569900  0.29370000 -0.58700000
O        O    0.31710000  0.34570000  0.79370100 -0.58700000
O        O    0.81709900  0.84569900  0.79370100 -0.58700000
O        O    0.83560000  0.36530100  0.31500000 -0.58700000
O        O    0.33560100  0.86530000  0.31500000 -0.58700000
O        O    0.33560100  0.36530100  0.81499900 -0.58700000
O        O    0.83560000  0.86530000  0.81499900 -0.58700000
O        O    0.87649900  0.34830100  0.16150000 -0.73100000
O        O    0.37650000  0.84830000  0.16150000 -0.73100000
O        O    0.37650000  0.34830100  0.66150000 -0.73100000
O        O    0.87649900  0.84830000  0.66150000 -0.73100000
O        O    0.89989900  0.37840000  0.09870010 -0.73100000
O        O    0.39990000  0.87840000  0.09870010 -0.73100000
O        O    0.39990000  0.37840000  0.59869900 -0.73100000
O        O    0.89989900  0.87840000  0.59869900 -0.73100000
O        O    0.88460000  0.34040000  0.13390000 -0.73100000
O        O    0.38460000  0.84040100  0.13390000 -0.73100000
O        O    0.38460000  0.34040000  0.63390000 -0.73100000
O        O    0.88460000  0.84040100  0.63390000 -0.73100000
O        O    0.80090000  0.32640000  0.23230000 -0.73100000
O        O    0.30090000  0.82640000  0.23230000 -0.73100000
O        O    0.30090000  0.32640000  0.73229900 -0.73100000
O        O    0.80090000  0.82640000  0.73229900 -0.73100000
O        O    0.83910000  0.31140000  0.19810000 -0.73100000
O        O    0.33910000  0.81140000  0.19810000 -0.73100000
O        O    0.33910000  0.31140000  0.69810000 -0.73100000
O        O    0.83910000  0.81140000  0.69810000 -0.73100000
O        O    0.77200000  0.32240000  0.22340000 -0.73100000
O        O    0.27200100  0.82239900  0.22340000 -0.73100000
O        O    0.27200100  0.32240000  0.72340000 -0.73100000
O        O    0.77200000  0.82239900  0.72340000 -0.73100000
O        O    0.78420100  0.22229900  0.26210000 -0.73100000
O        O    0.28420000  0.72230000  0.26210000 -0.73100000
O        O    0.28420000  0.22229900  0.76210000 -0.73100000
O        O    0.78420100  0.72230000  0.76210000 -0.73100000
O        O    0.77469900  0.29620000  0.18020000 -0.73100000
O        O    0.27470000  0.79620000  0.18020000 -0.73100000
O        O    0.27470000  0.29620000  0.68020100 -0.73100000
O        O    0.77469900  0.79620000  0.68020100 -0.73100000
O        O    0.82610000  0.28470100  0.19050000 -0.58700000
O        O    0.32609900  0.78470000  0.19050000 -0.58700000
O        O    0.32609900  0.28470100  0.69050000 -0.58700000
O        O    0.82610000  0.78470000  0.69050000 -0.58700000
O        O    0.84159900  0.24869900  0.05330040 -0.58700000
O        O    0.34160000  0.74870000  0.05330040 -0.58700000
O        O    0.34160000  0.24869900  0.55330000 -0.58700000
O        O    0.84159900  0.74870000  0.55330000 -0.58700000
O        O    0.97260000  0.41980000  0.07030040 -0.73100000
O        O    0.47260000  0.91980100  0.07030040 -0.73100000
O        O    0.47260000  0.41980000  0.57030000 -0.73100000
O        O    0.97260000  0.91980100  0.57030000 -0.73100000
O        O    0.86880000  0.25990000  0.06339970 -0.73100000
O        O    0.36880000  0.75989900  0.06339970 -0.73100000
O        O    0.36880000  0.25990000  0.56340000 -0.73100000
O        O    0.86880000  0.75989900  0.56340000 -0.73100000
O        O    0.96180000  0.39070100  0.07919960 -0.58700000
O        O    0.46180100  0.89070000  0.07919960 -0.58700000
O        O    0.46180100  0.39070100  0.57920000 -0.58700000
O        O    0.96180000  0.89070000  0.57920000 -0.58700000
O        O    0.86840000  0.27500000  0.11340000 -0.73100000
O        O    0.36840100  0.77500000  0.11340000 -0.73100000
O        O    0.36840100  0.27500000  0.61340100 -0.73100000
O        O    0.86840000  0.77500000  0.61340100 -0.73100000
O        O    0.85150000  0.25680000  0.13160000 -0.73100000
O        O    0.35150100  0.75680000  0.13160000 -0.73100000
O        O    0.35150100  0.25680000  0.63159900 -0.73100000
O        O    0.85150000  0.75680000  0.63159900 -0.73100000
C        C    0.92500000  0.40110000  0.08170010  0.11000000
C        C    0.42500000  0.90110000  0.08170010  0.11000000
C        C    0.42500000  0.40110000  0.58169900  0.11000000
C        C    0.92500000  0.90110000  0.58169900  0.11000000
C        C    0.93840000  0.41440000  0.07089980 -0.27400000
C        C    0.43840100  0.91440000  0.07089980 -0.27400000
C        C    0.43840100  0.41440000  0.57090000 -0.27400000
C        C    0.93840000  0.91440000  0.57090000 -0.27400000
C        C    0.95850000  0.40770100  0.07210000  0.84800000
C        C    0.45850100  0.90770000  0.07210000  0.84800000
C        C    0.45850100  0.40770100  0.57210100  0.84800000
C        C    0.95850000  0.90770000  0.57210100  0.84800000
C        C    0.79080000  0.33999900  0.26610000  0.11000000
C        C    0.29080000  0.84000000  0.26610000  0.11000000
C        C    0.29080000  0.33999900  0.76610100  0.11000000
C        C    0.79080000  0.84000000  0.76610100  0.11000000
C        C    0.77750000  0.33660100  0.25260000 -0.27400000
C        C    0.27750000  0.83660000  0.25260000 -0.27400000
C        C    0.27750000  0.33660100  0.75260000 -0.27400000
C        C    0.77750000  0.83660000  0.75260000 -0.27400000
C        C    0.78380000  0.32760000  0.23630000  0.84800000
C        C    0.28379900  0.82760100  0.23630000  0.84800000
C        C    0.28379900  0.32760000  0.73630000  0.84800000
C        C    0.78380000  0.82760100  0.73630000  0.84800000
C        C    0.85190000  0.29690000  0.17260000 -0.27400000
C        C    0.35190000  0.79690100  0.17260000 -0.27400000
C        C    0.35190000  0.29690000  0.67260000 -0.27400000
C        C    0.85190000  0.79690100  0.67260000 -0.27400000
C        C    0.85510000  0.28110000  0.16150000  0.11000000
C        C    0.35510000  0.78109900  0.16150000  0.11000000
C        C    0.35510000  0.28110000  0.66150000  0.11000000
C        C    0.85510000  0.78109900  0.66150000  0.11000000
C        C    0.86390000  0.28440000  0.14340000 -0.27400000
C        C    0.36390000  0.78440000  0.14340000 -0.27400000
C        C    0.36390000  0.28440000  0.64340000 -0.27400000
C        C    0.86390000  0.78440000  0.64340000 -0.27400000
C        C    0.87019900  0.30289900  0.13839900  0.11000000
C        C    0.37020000  0.80290000  0.13839900  0.11000000
C        C    0.37020000  0.30289900  0.63840000  0.11000000
C        C    0.87019900  0.80290000  0.63840000  0.11000000
C        C    0.86990000  0.31750100  0.15219900 -0.27400000
C        C    0.36990000  0.81750000  0.15219900 -0.27400000
C        C    0.36990000  0.31750100  0.65220000 -0.27400000
C        C    0.86990000  0.81750000  0.65220000 -0.27400000
C        C    0.86379900  0.31270000  0.17029900  0.11000000
C        C    0.36380000  0.81270100  0.17029900  0.11000000
C        C    0.36380000  0.31270000  0.67030000  0.11000000
C        C    0.86379900  0.81270100  0.67030000  0.11000000
C        C    0.87700000  0.33630000  0.14870000  0.84800000
C        C    0.37699900  0.83629900  0.14870000  0.84800000
C        C    0.37699900  0.33630000  0.64870000  0.84800000
C        C    0.87700000  0.83629900  0.64870000  0.84800000
C        C    0.86080000  0.27170000  0.12850000  0.84800000
C        C    0.36080000  0.77170000  0.12850000  0.84800000
C        C    0.36080000  0.27170000  0.62850000  0.84800000
C        C    0.86080000  0.77170000  0.62850000  0.84800000
C        C    0.83860000  0.29760000  0.18729900  0.84800000
C        C    0.33860000  0.79760000  0.18729900  0.84800000
C        C    0.33860000  0.29760000  0.68730000  0.84800000
C        C    0.83860000  0.79760000  0.68730000  0.84800000
C        C    0.78910000  0.26530000  0.12120000 -0.27400000
C        C    0.28909900  0.76530000  0.12120000 -0.27400000
C        C    0.28909900  0.26530000  0.62120000 -0.27400000
C        C    0.78910000  0.76530000  0.62120000 -0.27400000
C        C    0.79069900  0.26760000  0.14340000  0.11000000
C        C    0.29070000  0.76760000  0.14340000  0.11000000
C        C    0.29070000  0.26760000  0.64340000  0.11000000
C        C    0.79069900  0.76760000  0.64340000  0.11000000
C        C    0.86040000  0.24950000  0.05189990  0.84800000
C        C    0.36040000  0.74950000  0.05189990  0.84800000
C        C    0.36040000  0.24950000  0.55190100  0.84800000
C        C    0.86040000  0.74950000  0.55190100  0.84800000
H        H    0.82056700  0.36789200  0.18199100  0.10000000
H        H    0.32056800  0.86789200  0.18199100  0.10000000
H        H    0.32056800  0.36789200  0.68199200  0.10000000
H        H    0.82056700  0.86789200  0.68199200  0.10000000
H        H    0.76693900  0.35095500  0.16667600  0.10000000
H        H    0.26693900  0.85095400  0.16667600  0.10000000
H        H    0.26693900  0.35095500  0.66667600  0.10000000
H        H    0.76693900  0.85095400  0.66667600  0.10000000
H        H    0.89551600  0.31196900  0.35382300  0.10000000
H        H    0.39551600  0.81196800  0.35382300  0.10000000
H        H    0.39551600  0.31196900  0.85382400  0.10000000
H        H    0.89551600  0.81196800  0.85382400  0.10000000
H        H    0.88671400  0.42780300  0.08223090  0.10000000
H        H    0.38671300  0.92780400  0.08223090  0.10000000
H        H    0.38671300  0.42780300  0.58223200  0.10000000
H        H    0.88671400  0.92780400  0.58223200  0.10000000
H        H    0.93999000  0.43962400  0.05481190  0.10000000
H        H    0.43998900  0.93962300  0.05481190  0.10000000
H        H    0.43998900  0.43962400  0.55481300  0.10000000
H        H    0.93999000  0.93962300  0.55481300  0.10000000
H        H    0.87474000  0.44422000  0.12388700  0.10000000
H        H    0.37473900  0.94422000  0.12388700  0.10000000
H        H    0.37473900  0.44422000  0.62388800  0.10000000
H        H    0.87474000  0.94422000  0.62388800  0.10000000
H        H    0.80591800  0.34072900  0.26217300  0.10000000
H        H    0.30591800  0.84073000  0.26217300  0.10000000
H        H    0.30591800  0.34072900  0.76217200  0.10000000
H        H    0.80591800  0.84073000  0.76217200  0.10000000
H        H    0.80085200  0.26007200  0.15084000  0.10000000
H        H    0.30085300  0.76007100  0.15084000  0.10000000
H        H    0.30085300  0.26007200  0.65083900  0.10000000
H        H    0.80085200  0.76007100  0.65083900  0.10000000
Cr       Cr   0.04659990  0.27260000  0.44520000  1.85900000
Cr       Cr   0.54660100  0.77259900  0.44520000  1.85900000
Cr       Cr   0.54660100  0.27260000  0.94520000  1.85900000
Cr       Cr   0.04659990  0.77259900  0.94520000  1.85900000
Cr       Cr   0.16000000  0.36969900  0.48640000  1.85900000
Cr       Cr   0.66000100  0.86970000  0.48640000  1.85900000
Cr       Cr   0.66000100  0.36969900  0.98640000  1.85900000
Cr       Cr   0.16000000  0.86970000  0.98640000  1.85900000
O        O    0.95630000  0.31710000  0.40430000 -0.58700000
O        O    0.45630000  0.81709900  0.40430000 -0.58700000
O        O    0.45630000  0.31710000  0.90430000 -0.58700000
O        O    0.95630000  0.81709900  0.90430000 -0.58700000
O        O    0.93500000  0.33560100  0.38470000 -0.58700000
O        O    0.43500000  0.83560000  0.38470000 -0.58700000
O        O    0.43500000  0.33560100  0.88470000 -0.58700000
O        O    0.93500000  0.83560000  0.88470000 -0.58700000
O        O    0.08850060  0.37650000  0.40170000 -0.73100000
O        O    0.58850000  0.87649900  0.40170000 -0.73100000
O        O    0.58850000  0.37650000  0.90170000 -0.73100000
O        O    0.08850060  0.87649900  0.90170000 -0.73100000
O        O    0.15130000  0.39990000  0.37160100 -0.58700000
O        O    0.65130000  0.89989900  0.37160100 -0.58700000
O        O    0.65130000  0.39990000  0.87160000 -0.58700000
O        O    0.15130000  0.89989900  0.87160000 -0.58700000
O        O    0.11610100  0.38460000  0.40960000 -0.58700000
O        O    0.61610000  0.88460000  0.40960000 -0.58700000
O        O    0.61610000  0.38460000  0.90960000 -0.58700000
O        O    0.11610100  0.88460000  0.90960000 -0.58700000
O        O    0.01769960  0.30090000  0.42360100 -0.73100000
O        O    0.51770000  0.80090000  0.42360100 -0.73100000
O        O    0.51770000  0.30090000  0.92360000 -0.73100000
O        O    0.01769960  0.80090000  0.92360000 -0.73100000
O        O    0.05189990  0.33910000  0.43859900 -0.73100000
O        O    0.55190100  0.83910000  0.43859900 -0.73100000
O        O    0.55190100  0.33910000  0.93860000 -0.73100000
O        O    0.05189990  0.83910000  0.93860000 -0.73100000
O        O    0.02660010  0.27200100  0.42760000 -0.73100000
O        O    0.52659900  0.77200000  0.42760000 -0.73100000
O        O    0.52659900  0.27200100  0.92760000 -0.73100000
O        O    0.02660010  0.77200000  0.92760000 -0.73100000
O        O    0.48790000  0.28420000  0.02770020 -0.73100000
O        O    0.98789900  0.78420100  0.02770020 -0.73100000
O        O    0.98789900  0.28420000  0.52769900 -0.73100000
O        O    0.48790000  0.78420100  0.52769900 -0.73100000
O        O    0.06979980  0.27470000  0.45380000 -0.73100000
O        O    0.56980000  0.77469900  0.45380000 -0.73100000
O        O    0.56980000  0.27470000  0.95380100 -0.73100000
O        O    0.06979980  0.77469900  0.95380100 -0.73100000
O        O    0.05950010  0.32609900  0.46530000 -0.58700000
O        O    0.55949900  0.82610000  0.46530000 -0.58700000
O        O    0.55949900  0.32609900  0.96530000 -0.58700000
O        O    0.05950010  0.82610000  0.96530000 -0.58700000
O        O    0.69670000  0.34160000  0.00130031 -0.58700000
O        O    0.19670100  0.84159900  0.00130031 -0.58700000
O        O    0.19670100  0.34160000  0.50130000 -0.58700000
O        O    0.69670000  0.84159900  0.50130000 -0.58700000
O        O    0.17970100  0.47260000  0.33020100 -0.58700000
O        O    0.67970000  0.97260000  0.33020100 -0.58700000
O        O    0.67970000  0.47260000  0.83020000 -0.58700000
O        O    0.17970100  0.97260000  0.83020000 -0.58700000
O        O    0.18660000  0.36880000  0.49010000 -0.73100000
O        O    0.68660100  0.86880000  0.49010000 -0.73100000
O        O    0.68660100  0.36880000  0.99010000 -0.73100000
O        O    0.18660000  0.86880000  0.99010000 -0.73100000
O        O    0.17080000  0.46180100  0.35930000 -0.73100000
O        O    0.67079900  0.96180000  0.35930000 -0.73100000
O        O    0.67079900  0.46180100  0.85930000 -0.73100000
O        O    0.17080000  0.96180000  0.85930000 -0.73100000
O        O    0.13660000  0.36840100  0.47500000 -0.73100000
O        O    0.63660000  0.86840000  0.47500000 -0.73100000
O        O    0.63660000  0.36840100  0.97500100 -0.73100000
O        O    0.13660000  0.86840000  0.97500100 -0.73100000
O        O    0.11840000  0.35150100  0.49320000 -0.73100000
O        O    0.61840000  0.85150000  0.49320000 -0.73100000
O        O    0.61840000  0.35150100  0.99319900 -0.73100000
O        O    0.11840000  0.85150000  0.99319900 -0.73100000
C        C    0.16830000  0.42500000  0.34890000  0.11000000
C        C    0.66830000  0.92500000  0.34890000  0.11000000
C        C    0.66830000  0.42500000  0.84889900  0.11000000
C        C    0.16830000  0.92500000  0.84889900  0.11000000
C        C    0.17910000  0.43840100  0.33560100 -0.27400000
C        C    0.67910100  0.93840000  0.33560100 -0.27400000
C        C    0.67910100  0.43840100  0.83560000 -0.27400000
C        C    0.17910000  0.93840000  0.83560000 -0.27400000
C        C    0.17790000  0.45850100  0.34230000  0.84800000
C        C    0.67790000  0.95850000  0.34230000  0.84800000
C        C    0.67790000  0.45850100  0.84230000  0.84800000
C        C    0.17790000  0.95850000  0.84230000  0.84800000
C        C    0.98390000  0.29080000  0.40999900  0.11000000
C        C    0.48390000  0.79080000  0.40999900  0.11000000
C        C    0.48390000  0.29080000  0.91000000  0.11000000
C        C    0.98390000  0.79080000  0.91000000  0.11000000
C        C    0.99739900  0.27750000  0.41340000 -0.27400000
C        C    0.49740000  0.77750000  0.41340000 -0.27400000
C        C    0.49740000  0.27750000  0.91340000 -0.27400000
C        C    0.99739900  0.77750000  0.91340000 -0.27400000
C        C    0.01369990  0.28379900  0.42240000  0.84800000
C        C    0.51370100  0.78380000  0.42240000  0.84800000
C        C    0.51370100  0.28379900  0.92240000  0.84800000
C        C    0.01369990  0.78380000  0.92240000  0.84800000
C        C    0.07740000  0.35190000  0.45310000 -0.27400000
C        C    0.57740100  0.85190000  0.45310000 -0.27400000
C        C    0.57740100  0.35190000  0.95310000 -0.27400000
C        C    0.07740000  0.85190000  0.95310000 -0.27400000
C        C    0.08850060  0.35510000  0.46890000  0.11000000
C        C    0.58850000  0.85510000  0.46890000  0.11000000
C        C    0.58850000  0.35510000  0.96890000  0.11000000
C        C    0.08850060  0.85510000  0.96890000  0.11000000
C        C    0.10659900  0.36390000  0.46560000 -0.27400000
C        C    0.60660000  0.86390000  0.46560000 -0.27400000
C        C    0.60660000  0.36390000  0.96559900 -0.27400000
C        C    0.10659900  0.86390000  0.96559900 -0.27400000
C        C    0.11160000  0.37020000  0.44709900  0.11000000
C        C    0.61160000  0.87019900  0.44709900  0.11000000
C        C    0.61160000  0.37020000  0.94710000  0.11000000
C        C    0.11160000  0.87019900  0.94710000  0.11000000
C        C    0.09780030  0.36990000  0.43250000 -0.27400000
C        C    0.59780000  0.86990000  0.43250000 -0.27400000
C        C    0.59780000  0.36990000  0.93250000 -0.27400000
C        C    0.09780030  0.86990000  0.93250000 -0.27400000
C        C    0.07970020  0.36380000  0.43730100  0.11000000
C        C    0.57970000  0.86379900  0.43730100  0.11000000
C        C    0.57970000  0.36380000  0.93730000  0.11000000
C        C    0.07970020  0.86379900  0.93730000  0.11000000
C        C    0.10129900  0.37699900  0.41370000  0.84800000
C        C    0.60130000  0.87700000  0.41370000  0.84800000
C        C    0.60130000  0.37699900  0.91369900  0.84800000
C        C    0.10129900  0.87700000  0.91369900  0.84800000
C        C    0.12149900  0.36080000  0.47830000  0.84800000
C        C    0.62150000  0.86080000  0.47830000  0.84800000
C        C    0.62150000  0.36080000  0.97829900  0.84800000
C        C    0.12149900  0.86080000  0.97829900  0.84800000
C        C    0.06270020  0.33860000  0.45239900  0.84800000
C        C    0.56269900  0.83860000  0.45239900  0.84800000
C        C    0.56269900  0.33860000  0.95240000  0.84800000
C        C    0.06270020  0.83860000  0.95240000  0.84800000
C        C    0.12880100  0.28909900  0.48470000 -0.27400000
C        C    0.62880000  0.78910000  0.48470000 -0.27400000
C        C    0.62880000  0.28909900  0.98469900 -0.27400000
C        C    0.12880100  0.78910000  0.98469900 -0.27400000
C        C    0.10659900  0.29070000  0.48240000  0.11000000
C        C    0.60660000  0.79069900  0.48240000  0.11000000
C        C    0.60660000  0.29070000  0.98240100  0.11000000
C        C    0.10659900  0.79069900  0.98240100  0.11000000
C        C    0.69810000  0.36040000  0.00050065  0.84800000
C        C    0.19810000  0.86040000  0.00050065  0.84800000
C        C    0.19810000  0.36040000  0.50050000  0.84800000
C        C    0.69810000  0.86040000  0.50050000  0.84800000
H        H    0.06800840  0.32056800  0.38210700  0.10000000
H        H    0.56800900  0.82056700  0.38210700  0.10000000
H        H    0.56800900  0.32056800  0.88210800  0.10000000
H        H    0.06800840  0.82056700  0.88210800  0.10000000
H        H    0.08332410  0.26693900  0.39904600  0.10000000
H        H    0.58332500  0.76693900  0.39904600  0.10000000
H        H    0.58332500  0.26693900  0.89904500  0.10000000
H        H    0.08332410  0.76693900  0.89904500  0.10000000
H        H    0.16776900  0.38671300  0.32219600  0.10000000
H        H    0.66776800  0.88671400  0.32219600  0.10000000
H        H    0.66776800  0.38671300  0.82219600  0.10000000
H        H    0.16776900  0.88671400  0.82219600  0.10000000
H        H    0.19518800  0.43998900  0.31037600  0.10000000
H        H    0.69518700  0.93999000  0.31037600  0.10000000
H        H    0.69518700  0.43998900  0.81037700  0.10000000
H        H    0.19518800  0.93999000  0.81037700  0.10000000
H        H    0.12611200  0.37473900  0.30578000  0.10000000
H        H    0.62611200  0.87474000  0.30578000  0.10000000
H        H    0.62611200  0.37473900  0.80577900  0.10000000
H        H    0.12611200  0.87474000  0.80577900  0.10000000
H        H    0.98782700  0.30591800  0.40927000  0.10000000
H        H    0.48782700  0.80591800  0.40927000  0.10000000
H        H    0.48782700  0.30591800  0.90927000  0.10000000
H        H    0.98782700  0.80591800  0.90927000  0.10000000
H        H    0.09916100  0.30085300  0.48992900  0.10000000
H        H    0.59916000  0.80085200  0.48992900  0.10000000
H        H    0.59916000  0.30085300  0.98992800  0.10000000
H        H    0.09916100  0.80085200  0.98992800  0.10000000
Cr       Cr   0.04659990  0.47740000  0.30480100  1.62000000
Cr       Cr   0.54660100  0.97740000  0.30480100  1.62000000
Cr       Cr   0.54660100  0.47740000  0.80480000  1.62000000
Cr       Cr   0.04659990  0.97740000  0.80480000  1.62000000
Cr       Cr   0.16000000  0.38029900  0.26359900  1.62000000
Cr       Cr   0.66000100  0.88030000  0.26359900  1.62000000
Cr       Cr   0.66000100  0.38029900  0.76360000  1.62000000
Cr       Cr   0.16000000  0.88030000  0.76360000  1.62000000
O        O    0.95630000  0.43290000  0.34570000 -0.73100000
O        O    0.45630000  0.93290000  0.34570000 -0.73100000
O        O    0.45630000  0.43290000  0.84569900 -0.73100000
O        O    0.95630000  0.93290000  0.84569900 -0.73100000
O        O    0.93500000  0.41440000  0.36530100 -0.73100000
O        O    0.43500000  0.91440000  0.36530100 -0.73100000
O        O    0.43500000  0.41440000  0.86530000 -0.73100000
O        O    0.93500000  0.91440000  0.86530000 -0.73100000
O        O    0.08850060  0.37350000  0.34830100 -0.73100000
O        O    0.58850000  0.87350000  0.34830100 -0.73100000
O        O    0.58850000  0.37350000  0.84830000 -0.73100000
O        O    0.08850060  0.87350000  0.84830000 -0.73100000
O        O    0.15130000  0.35010000  0.37840000 -0.73100000
O        O    0.65130000  0.85010000  0.37840000 -0.73100000
O        O    0.65130000  0.35010000  0.87840000 -0.73100000
O        O    0.15130000  0.85010000  0.87840000 -0.73100000
O        O    0.11610100  0.36539900  0.34040000 -0.73100000
O        O    0.61610000  0.86540000  0.34040000 -0.73100000
O        O    0.61610000  0.36539900  0.84040100 -0.73100000
O        O    0.11610100  0.86540000  0.84040100 -0.73100000
O        O    0.01769960  0.44910100  0.32640000 -0.73100000
O        O    0.51770000  0.94910000  0.32640000 -0.73100000
O        O    0.51770000  0.44910100  0.82640000 -0.73100000
O        O    0.01769960  0.94910000  0.82640000 -0.73100000
O        O    0.05189990  0.41090100  0.31140000 -0.73100000
O        O    0.55190100  0.91090000  0.31140000 -0.73100000
O        O    0.55190100  0.41090100  0.81140000 -0.73100000
O        O    0.05189990  0.91090000  0.81140000 -0.73100000
O        O    0.02660010  0.47800000  0.32240000 -0.58700000
O        O    0.52659900  0.97800000  0.32240000 -0.58700000
O        O    0.52659900  0.47800000  0.82239900 -0.58700000
O        O    0.02660010  0.97800000  0.82239900 -0.58700000
O        O    0.98789900  0.46580000  0.22229900 -0.73100000
O        O    0.48790000  0.96580000  0.22229900 -0.73100000
O        O    0.48790000  0.46580000  0.72230000 -0.73100000
O        O    0.98789900  0.96580000  0.72230000 -0.73100000
O        O    0.06979980  0.47530000  0.29620000 -0.58700000
O        O    0.56980000  0.97530000  0.29620000 -0.58700000
O        O    0.56980000  0.47530000  0.79620000 -0.58700000
O        O    0.06979980  0.97530000  0.79620000 -0.58700000
O        O    0.05950010  0.42390000  0.28470100 -0.73100000
O        O    0.55949900  0.92390000  0.28470100 -0.73100000
O        O    0.55949900  0.42390000  0.78470000 -0.73100000
O        O    0.05950010  0.92390000  0.78470000 -0.73100000
O        O    0.19670100  0.40840000  0.24869900 -0.73100000
O        O    0.69670000  0.90839900  0.24869900 -0.73100000
O        O    0.69670000  0.40840000  0.74870000 -0.73100000
O        O    0.19670100  0.90839900  0.74870000 -0.73100000
O        O    0.17970100  0.27739900  0.41980000 -0.73100000
O        O    0.67970000  0.77740000  0.41980000 -0.73100000
O        O    0.67970000  0.27739900  0.91980100 -0.73100000
O        O    0.17970100  0.77740000  0.91980100 -0.73100000
O        O    0.18660000  0.38120100  0.25990000 -0.58700000
O        O    0.68660100  0.88120000  0.25990000 -0.58700000
O        O    0.68660100  0.38120100  0.75989900 -0.58700000
O        O    0.18660000  0.88120000  0.75989900 -0.58700000
O        O    0.17080000  0.28820000  0.39070100 -0.73100000
O        O    0.67079900  0.78820000  0.39070100 -0.73100000
O        O    0.67079900  0.28820000  0.89070000 -0.73100000
O        O    0.17080000  0.78820000  0.89070000 -0.73100000
O        O    0.13660000  0.38160000  0.27500000 -0.58700000
O        O    0.63660000  0.88160000  0.27500000 -0.58700000
O        O    0.63660000  0.38160000  0.77500000 -0.58700000
O        O    0.13660000  0.88160000  0.77500000 -0.58700000
O        O    0.11840000  0.39850000  0.25680000 -0.73100000
O        O    0.61840000  0.89850000  0.25680000 -0.73100000
O        O    0.61840000  0.39850000  0.75680000 -0.73100000
O        O    0.11840000  0.89850000  0.75680000 -0.73100000
F        F    0.55170000  0.00140044  0.31520000 -0.56600000
F        F    0.05169970  0.50140000  0.31520000 -0.56600000
F        F    0.05169970  0.00140044  0.81520000 -0.56600000
F        F    0.55170000  0.50140000  0.81520000 -0.56600000
F        F    0.16550000  0.35750000  0.27430000 -0.56600000
F        F    0.66549900  0.85749900  0.27430000 -0.56600000
F        F    0.66549900  0.35750000  0.77430000 -0.56600000
F        F    0.16550000  0.85749900  0.77430000 -0.56600000
C        C    0.16830000  0.32500100  0.40110000  0.11000000
C        C    0.66830000  0.82500000  0.40110000  0.11000000
C        C    0.66830000  0.32500100  0.90110000  0.11000000
C        C    0.16830000  0.82500000  0.90110000  0.11000000
C        C    0.17910000  0.31160000  0.41440000 -0.27400000
C        C    0.67910100  0.81160000  0.41440000 -0.27400000
C        C    0.67910100  0.31160000  0.91440000 -0.27400000
C        C    0.17910000  0.81160000  0.91440000 -0.27400000
C        C    0.17790000  0.29150000  0.40770100  0.84800000
C        C    0.67790000  0.79150100  0.40770100  0.84800000
C        C    0.67790000  0.29150000  0.90770000  0.84800000
C        C    0.17790000  0.79150100  0.90770000  0.84800000
C        C    0.98390000  0.45920000  0.33999900  0.11000000
C        C    0.48390000  0.95919900  0.33999900  0.11000000
C        C    0.48390000  0.45920000  0.84000000  0.11000000
C        C    0.98390000  0.95919900  0.84000000  0.11000000
C        C    0.99739900  0.47249900  0.33660100 -0.27400000
C        C    0.49740000  0.97250000  0.33660100 -0.27400000
C        C    0.49740000  0.47249900  0.83660000 -0.27400000
C        C    0.99739900  0.97250000  0.83660000 -0.27400000
C        C    0.01369990  0.46619900  0.32760000  0.84800000
C        C    0.51370100  0.96620000  0.32760000  0.84800000
C        C    0.51370100  0.46619900  0.82760100  0.84800000
C        C    0.01369990  0.96620000  0.82760100  0.84800000
C        C    0.07740000  0.39810100  0.29690000 -0.27400000
C        C    0.57740100  0.89810000  0.29690000 -0.27400000
C        C    0.57740100  0.39810100  0.79690100 -0.27400000
C        C    0.07740000  0.89810000  0.79690100 -0.27400000
C        C    0.08850060  0.39490100  0.28110000  0.11000000
C        C    0.58850000  0.89490000  0.28110000  0.11000000
C        C    0.58850000  0.39490100  0.78109900  0.11000000
C        C    0.08850060  0.89490000  0.78109900  0.11000000
C        C    0.10659900  0.38610000  0.28440000 -0.27400000
C        C    0.60660000  0.88609900  0.28440000 -0.27400000
C        C    0.60660000  0.38610000  0.78440000 -0.27400000
C        C    0.10659900  0.88609900  0.78440000 -0.27400000
C        C    0.11160000  0.37980000  0.30289900  0.11000000
C        C    0.61160000  0.87980000  0.30289900  0.11000000
C        C    0.61160000  0.37980000  0.80290000  0.11000000
C        C    0.11160000  0.87980000  0.80290000  0.11000000
C        C    0.09780030  0.38010100  0.31750100 -0.27400000
C        C    0.59780000  0.88010000  0.31750100 -0.27400000
C        C    0.59780000  0.38010100  0.81750000 -0.27400000
C        C    0.09780030  0.88010000  0.81750000 -0.27400000
C        C    0.07970020  0.38620000  0.31270000  0.11000000
C        C    0.57970000  0.88620000  0.31270000  0.11000000
C        C    0.57970000  0.38620000  0.81270100  0.11000000
C        C    0.07970020  0.88620000  0.81270100  0.11000000
C        C    0.10129900  0.37300000  0.33630000  0.84800000
C        C    0.60130000  0.87300000  0.33630000  0.84800000
C        C    0.60130000  0.37300000  0.83629900  0.84800000
C        C    0.10129900  0.87300000  0.83629900  0.84800000
C        C    0.12149900  0.38920000  0.27170000  0.84800000
C        C    0.62150000  0.88920100  0.27170000  0.84800000
C        C    0.62150000  0.38920000  0.77170000  0.84800000
C        C    0.12149900  0.88920100  0.77170000  0.84800000
C        C    0.06270020  0.41140000  0.29760000  0.84800000
C        C    0.56269900  0.91140100  0.29760000  0.84800000
C        C    0.56269900  0.41140000  0.79760000  0.84800000
C        C    0.06270020  0.91140100  0.79760000  0.84800000
C        C    0.12880100  0.46089900  0.26530000 -0.27400000
C        C    0.62880000  0.96090000  0.26530000 -0.27400000
C        C    0.62880000  0.46089900  0.76530000 -0.27400000
C        C    0.12880100  0.96090000  0.76530000 -0.27400000
C        C    0.10659900  0.45930000  0.26760000  0.11000000
C        C    0.60660000  0.95929900  0.26760000  0.11000000
C        C    0.60660000  0.45930000  0.76760000  0.11000000
C        C    0.10659900  0.95929900  0.76760000  0.11000000
C        C    0.19810000  0.38960100  0.24950000  0.84800000
C        C    0.69810000  0.88960000  0.24950000  0.84800000
C        C    0.69810000  0.38960100  0.74950000  0.84800000
C        C    0.19810000  0.88960000  0.74950000  0.84800000
H        H    0.06800840  0.42943300  0.36789200  0.10000000
H        H    0.56800900  0.92943400  0.36789200  0.10000000
H        H    0.56800900  0.42943300  0.86789200  0.10000000
H        H    0.06800840  0.92943400  0.86789200  0.10000000
H        H    0.08332410  0.48306100  0.35095500  0.10000000
H        H    0.58332500  0.98306000  0.35095500  0.10000000
H        H    0.58332500  0.48306100  0.85095400  0.10000000
H        H    0.08332410  0.98306000  0.85095400  0.10000000
H        H    0.16776900  0.36328600  0.42780300  0.10000000
H        H    0.66776800  0.86328600  0.42780300  0.10000000
H        H    0.66776800  0.36328600  0.92780400  0.10000000
H        H    0.16776900  0.86328600  0.92780400  0.10000000
H        H    0.12611200  0.37526000  0.44422000  0.10000000
H        H    0.62611200  0.87526100  0.44422000  0.10000000
H        H    0.62611200  0.37526000  0.94422000  0.10000000
H        H    0.12611200  0.87526100  0.94422000  0.10000000
H        H    0.98782700  0.44408200  0.34072900  0.10000000
H        H    0.48782700  0.94408300  0.34072900  0.10000000
H        H    0.48782700  0.44408200  0.84073000  0.10000000
H        H    0.98782700  0.94408300  0.84073000  0.10000000
H        H    0.09916100  0.44914700  0.26007200  0.10000000
H        H    0.59916000  0.94914800  0.26007200  0.10000000
H        H    0.59916000  0.44914700  0.76007100  0.10000000
H        H    0.09916100  0.94914800  0.76007100  0.10000000
Cr       Cr   0.70340000  0.47740000  0.44520000  1.85900000
Cr       Cr   0.20340000  0.97740000  0.44520000  1.85900000
Cr       Cr   0.20340000  0.47740000  0.94520000  1.85900000
Cr       Cr   0.70340000  0.97740000  0.94520000  1.85900000
Cr       Cr   0.59000100  0.38029900  0.48640000  1.85900000
Cr       Cr   0.08999980  0.88030000  0.48640000  1.85900000
Cr       Cr   0.08999980  0.38029900  0.98640000  1.85900000
Cr       Cr   0.59000100  0.88030000  0.98640000  1.85900000
O        O    0.79370100  0.43290000  0.40430000 -0.73100000
O        O    0.29370000  0.93290000  0.40430000 -0.73100000
O        O    0.29370000  0.43290000  0.90430000 -0.73100000
O        O    0.79370100  0.93290000  0.90430000 -0.73100000
O        O    0.81499900  0.41440000  0.38470000 -0.73100000
O        O    0.31500000  0.91440000  0.38470000 -0.73100000
O        O    0.31500000  0.41440000  0.88470000 -0.73100000
O        O    0.81499900  0.91440000  0.88470000 -0.73100000
O        O    0.66150000  0.37350000  0.40170000 -0.73100000
O        O    0.16150000  0.87350000  0.40170000 -0.73100000
O        O    0.16150000  0.37350000  0.90170000 -0.73100000
O        O    0.66150000  0.87350000  0.90170000 -0.73100000
O        O    0.59869900  0.35010000  0.37160100 -0.58700000
O        O    0.09870010  0.85010000  0.37160100 -0.58700000
O        O    0.09870010  0.35010000  0.87160000 -0.58700000
O        O    0.59869900  0.85010000  0.87160000 -0.58700000
O        O    0.63390000  0.36539900  0.40960000 -0.58700000
O        O    0.13390000  0.86540000  0.40960000 -0.58700000
O        O    0.13390000  0.36539900  0.90960000 -0.58700000
O        O    0.63390000  0.86540000  0.90960000 -0.58700000
O        O    0.73229900  0.44910100  0.42360100 -0.73100000
O        O    0.23230000  0.94910000  0.42360100 -0.73100000
O        O    0.23230000  0.44910100  0.92360000 -0.73100000
O        O    0.73229900  0.94910000  0.92360000 -0.73100000
O        O    0.69810000  0.41090100  0.43859900 -0.73100000
O        O    0.19810000  0.91090000  0.43859900 -0.73100000
O        O    0.19810000  0.41090100  0.93860000 -0.73100000
O        O    0.69810000  0.91090000  0.93860000 -0.73100000
O        O    0.72340000  0.47800000  0.42760000 -0.73100000
O        O    0.22340000  0.97800000  0.42760000 -0.73100000
O        O    0.22340000  0.47800000  0.92760000 -0.73100000
O        O    0.72340000  0.97800000  0.92760000 -0.73100000
O        O    0.26210000  0.46580000  0.02770020 -0.73100000
O        O    0.76210000  0.96580000  0.02770020 -0.73100000
O        O    0.76210000  0.46580000  0.52769900 -0.73100000
O        O    0.26210000  0.96580000  0.52769900 -0.73100000
O        O    0.68020100  0.47530000  0.45380000 -0.73100000
O        O    0.18020000  0.97530000  0.45380000 -0.73100000
O        O    0.18020000  0.47530000  0.95380100 -0.73100000
O        O    0.68020100  0.97530000  0.95380100 -0.73100000
O        O    0.69050000  0.42390000  0.46530000 -0.58700000
O        O    0.19050000  0.92390000  0.46530000 -0.58700000
O        O    0.19050000  0.42390000  0.96530000 -0.58700000
O        O    0.69050000  0.92390000  0.96530000 -0.58700000
O        O    0.05330040  0.40840000  0.00130031 -0.58700000
O        O    0.55330000  0.90839900  0.00130031 -0.58700000
O        O    0.55330000  0.40840000  0.50130000 -0.58700000
O        O    0.05330040  0.90839900  0.50130000 -0.58700000
O        O    0.57030000  0.27739900  0.33020100 -0.58700000
O        O    0.07030040  0.77740000  0.33020100 -0.58700000
O        O    0.07030040  0.27739900  0.83020000 -0.58700000
O        O    0.57030000  0.77740000  0.83020000 -0.58700000
O        O    0.56340000  0.38120100  0.49010000 -0.73100000
O        O    0.06339970  0.88120000  0.49010000 -0.73100000
O        O    0.06339970  0.38120100  0.99010000 -0.73100000
O        O    0.56340000  0.88120000  0.99010000 -0.73100000
O        O    0.57920000  0.28820000  0.35930000 -0.73100000
O        O    0.07919960  0.78820000  0.35930000 -0.73100000
O        O    0.07919960  0.28820000  0.85930000 -0.73100000
O        O    0.57920000  0.78820000  0.85930000 -0.73100000
O        O    0.61340100  0.38160000  0.47500000 -0.73100000
O        O    0.11340000  0.88160000  0.47500000 -0.73100000
O        O    0.11340000  0.38160000  0.97500100 -0.73100000
O        O    0.61340100  0.88160000  0.97500100 -0.73100000
O        O    0.63159900  0.39850000  0.49320000 -0.73100000
O        O    0.13160000  0.89850000  0.49320000 -0.73100000
O        O    0.13160000  0.39850000  0.99319900 -0.73100000
O        O    0.63159900  0.89850000  0.99319900 -0.73100000
C        C    0.58169900  0.32500100  0.34890000  0.11000000
C        C    0.08170010  0.82500000  0.34890000  0.11000000
C        C    0.08170010  0.32500100  0.84889900  0.11000000
C        C    0.58169900  0.82500000  0.84889900  0.11000000
C        C    0.57090000  0.31160000  0.33560100 -0.27400000
C        C    0.07089980  0.81160000  0.33560100 -0.27400000
C        C    0.07089980  0.31160000  0.83560000 -0.27400000
C        C    0.57090000  0.81160000  0.83560000 -0.27400000
C        C    0.57210100  0.29150000  0.34230000  0.84800000
C        C    0.07210000  0.79150100  0.34230000  0.84800000
C        C    0.07210000  0.29150000  0.84230000  0.84800000
C        C    0.57210100  0.79150100  0.84230000  0.84800000
C        C    0.76610100  0.45920000  0.40999900  0.11000000
C        C    0.26610000  0.95919900  0.40999900  0.11000000
C        C    0.26610000  0.45920000  0.91000000  0.11000000
C        C    0.76610100  0.95919900  0.91000000  0.11000000
C        C    0.75260000  0.47249900  0.41340000 -0.27400000
C        C    0.25260000  0.97250000  0.41340000 -0.27400000
C        C    0.25260000  0.47249900  0.91340000 -0.27400000
C        C    0.75260000  0.97250000  0.91340000 -0.27400000
C        C    0.73630000  0.46619900  0.42240000  0.84800000
C        C    0.23630000  0.96620000  0.42240000  0.84800000
C        C    0.23630000  0.46619900  0.92240000  0.84800000
C        C    0.73630000  0.96620000  0.92240000  0.84800000
C        C    0.67260000  0.39810100  0.45310000 -0.27400000
C        C    0.17260000  0.89810000  0.45310000 -0.27400000
C        C    0.17260000  0.39810100  0.95310000 -0.27400000
C        C    0.67260000  0.89810000  0.95310000 -0.27400000
C        C    0.66150000  0.39490100  0.46890000  0.11000000
C        C    0.16150000  0.89490000  0.46890000  0.11000000
C        C    0.16150000  0.39490100  0.96890000  0.11000000
C        C    0.66150000  0.89490000  0.96890000  0.11000000
C        C    0.64340000  0.38610000  0.46560000 -0.27400000
C        C    0.14340000  0.88609900  0.46560000 -0.27400000
C        C    0.14340000  0.38610000  0.96559900 -0.27400000
C        C    0.64340000  0.88609900  0.96559900 -0.27400000
C        C    0.63840000  0.37980000  0.44709900  0.11000000
C        C    0.13839900  0.87980000  0.44709900  0.11000000
C        C    0.13839900  0.37980000  0.94710000  0.11000000
C        C    0.63840000  0.87980000  0.94710000  0.11000000
C        C    0.65220000  0.38010100  0.43250000 -0.27400000
C        C    0.15219900  0.88010000  0.43250000 -0.27400000
C        C    0.15219900  0.38010100  0.93250000 -0.27400000
C        C    0.65220000  0.88010000  0.93250000 -0.27400000
C        C    0.67030000  0.38620000  0.43730100  0.11000000
C        C    0.17029900  0.88620000  0.43730100  0.11000000
C        C    0.17029900  0.38620000  0.93730000  0.11000000
C        C    0.67030000  0.88620000  0.93730000  0.11000000
C        C    0.64870000  0.37300000  0.41370000  0.84800000
C        C    0.14870000  0.87300000  0.41370000  0.84800000
C        C    0.14870000  0.37300000  0.91369900  0.84800000
C        C    0.64870000  0.87300000  0.91369900  0.84800000
C        C    0.62850000  0.38920000  0.47830000  0.84800000
C        C    0.12850000  0.88920100  0.47830000  0.84800000
C        C    0.12850000  0.38920000  0.97829900  0.84800000
C        C    0.62850000  0.88920100  0.97829900  0.84800000
C        C    0.68730000  0.41140000  0.45239900  0.84800000
C        C    0.18729900  0.91140100  0.45239900  0.84800000
C        C    0.18729900  0.41140000  0.95240000  0.84800000
C        C    0.68730000  0.91140100  0.95240000  0.84800000
C        C    0.62120000  0.46089900  0.48470000 -0.27400000
C        C    0.12120000  0.96090000  0.48470000 -0.27400000
C        C    0.12120000  0.46089900  0.98469900 -0.27400000
C        C    0.62120000  0.96090000  0.98469900 -0.27400000
C        C    0.64340000  0.45930000  0.48240000  0.11000000
C        C    0.14340000  0.95929900  0.48240000  0.11000000
C        C    0.14340000  0.45930000  0.98240100  0.11000000
C        C    0.64340000  0.95929900  0.98240100  0.11000000
C        C    0.05189990  0.38960100  0.00050065  0.84800000
C        C    0.55190100  0.88960000  0.00050065  0.84800000
C        C    0.55190100  0.38960100  0.50050000  0.84800000
C        C    0.05189990  0.88960000  0.50050000  0.84800000
H        H    0.68199200  0.42943300  0.38210700  0.10000000
H        H    0.18199100  0.92943400  0.38210700  0.10000000
H        H    0.18199100  0.42943300  0.88210800  0.10000000
H        H    0.68199200  0.92943400  0.88210800  0.10000000
H        H    0.66667600  0.48306100  0.39904600  0.10000000
H        H    0.16667600  0.98306000  0.39904600  0.10000000
H        H    0.16667600  0.48306100  0.89904500  0.10000000
H        H    0.66667600  0.98306000  0.89904500  0.10000000
H        H    0.85382400  0.35448400  0.43803200  0.10000000
H        H    0.35382300  0.85448300  0.43803200  0.10000000
H        H    0.35382300  0.35448400  0.93803200  0.10000000
H        H    0.85382400  0.85448300  0.93803200  0.10000000
H        H    0.58223200  0.36328600  0.32219600  0.10000000
H        H    0.08223090  0.86328600  0.32219600  0.10000000
H        H    0.08223090  0.36328600  0.82219600  0.10000000
H        H    0.58223200  0.86328600  0.82219600  0.10000000
H        H    0.55481300  0.31001100  0.31037600  0.10000000
H        H    0.05481190  0.81001100  0.31037600  0.10000000
H        H    0.05481190  0.31001100  0.81037700  0.10000000
H        H    0.55481300  0.81001100  0.81037700  0.10000000
H        H    0.62388800  0.37526000  0.30578000  0.10000000
H        H    0.12388700  0.87526100  0.30578000  0.10000000
H        H    0.12388700  0.37526000  0.80577900  0.10000000
H        H    0.62388800  0.87526100  0.80577900  0.10000000
H        H    0.76217200  0.44408200  0.40927000  0.10000000
H        H    0.26217300  0.94408300  0.40927000  0.10000000
H        H    0.26217300  0.44408200  0.90927000  0.10000000
H        H    0.76217200  0.94408300  0.90927000  0.10000000
H        H    0.65083900  0.44914700  0.48992900  0.10000000
H        H    0.15084000  0.94914800  0.48992900  0.10000000
H        H    0.15084000  0.44914700  0.98992800  0.10000000
H        H    0.65083900  0.94914800  0.98992800  0.10000000
Cr       Cr   0.70340000  0.27260000  0.30480100  1.85900000
Cr       Cr   0.20340000  0.77259900  0.30480100  1.85900000
Cr       Cr   0.20340000  0.27260000  0.80480000  1.85900000
Cr       Cr   0.70340000  0.77259900  0.80480000  1.85900000
Cr       Cr   0.59000100  0.36969900  0.26359900  1.85900000
Cr       Cr   0.08999980  0.86970000  0.26359900  1.85900000
Cr       Cr   0.08999980  0.36969900  0.76360000  1.85900000
Cr       Cr   0.59000100  0.86970000  0.76360000  1.85900000
O        O    0.79370100  0.31710000  0.34570000 -0.73100000
O        O    0.29370000  0.81709900  0.34570000 -0.73100000
O        O    0.29370000  0.31710000  0.84569900 -0.73100000
O        O    0.79370100  0.81709900  0.84569900 -0.73100000
O        O    0.81499900  0.33560100  0.36530100 -0.73100000
O        O    0.31500000  0.83560000  0.36530100 -0.73100000
O        O    0.31500000  0.33560100  0.86530000 -0.73100000
O        O    0.81499900  0.83560000  0.86530000 -0.73100000
O        O    0.66150000  0.37650000  0.34830100 -0.73100000
O        O    0.16150000  0.87649900  0.34830100 -0.73100000
O        O    0.16150000  0.37650000  0.84830000 -0.73100000
O        O    0.66150000  0.87649900  0.84830000 -0.73100000
O        O    0.59869900  0.39990000  0.37840000 -0.73100000
O        O    0.09870010  0.89989900  0.37840000 -0.73100000
O        O    0.09870010  0.39990000  0.87840000 -0.73100000
O        O    0.59869900  0.89989900  0.87840000 -0.73100000
O        O    0.63390000  0.38460000  0.34040000 -0.73100000
O        O    0.13390000  0.88460000  0.34040000 -0.73100000
O        O    0.13390000  0.38460000  0.84040100 -0.73100000
O        O    0.63390000  0.88460000  0.84040100 -0.73100000
O        O    0.73229900  0.30090000  0.32640000 -0.58700000
O        O    0.23230000  0.80090000  0.32640000 -0.58700000
O        O    0.23230000  0.30090000  0.82640000 -0.58700000
O        O    0.73229900  0.80090000  0.82640000 -0.58700000
O        O    0.69810000  0.33910000  0.31140000 -0.58700000
O        O    0.19810000  0.83910000  0.31140000 -0.58700000
O        O    0.19810000  0.33910000  0.81140000 -0.58700000
O        O    0.69810000  0.83910000  0.81140000 -0.58700000
O        O    0.72340000  0.27200100  0.32240000 -0.73100000
O        O    0.22340000  0.77200000  0.32240000 -0.73100000
O        O    0.22340000  0.27200100  0.82239900 -0.73100000
O        O    0.72340000  0.77200000  0.82239900 -0.73100000
O        O    0.76210000  0.28420000  0.22229900 -0.73100000
O        O    0.26210000  0.78420100  0.22229900 -0.73100000
O        O    0.26210000  0.28420000  0.72230000 -0.73100000
O        O    0.76210000  0.78420100  0.72230000 -0.73100000
O        O    0.68020100  0.27470000  0.29620000 -0.73100000
O        O    0.18020000  0.77469900  0.29620000 -0.73100000
O        O    0.18020000  0.27470000  0.79620000 -0.73100000
O        O    0.68020100  0.77469900  0.79620000 -0.73100000
O        O    0.69050000  0.32609900  0.28470100 -0.73100000
O        O    0.19050000  0.82610000  0.28470100 -0.73100000
O        O    0.19050000  0.32609900  0.78470000 -0.73100000
O        O    0.69050000  0.82610000  0.78470000 -0.73100000
O        O    0.55330000  0.34160000  0.24869900 -0.73100000
O        O    0.05330040  0.84159900  0.24869900 -0.73100000
O        O    0.05330040  0.34160000  0.74870000 -0.73100000
O        O    0.55330000  0.84159900  0.74870000 -0.73100000
O        O    0.57030000  0.47260000  0.41980000 -0.73100000
O        O    0.07030040  0.97260000  0.41980000 -0.73100000
O        O    0.07030040  0.47260000  0.91980100 -0.73100000
O        O    0.57030000  0.97260000  0.91980100 -0.73100000
O        O    0.56340000  0.36880000  0.25990000 -0.73100000
O        O    0.06339970  0.86880000  0.25990000 -0.73100000
O        O    0.06339970  0.36880000  0.75989900 -0.73100000
O        O    0.56340000  0.86880000  0.75989900 -0.73100000
O        O    0.57920000  0.46180100  0.39070100 -0.58700000
O        O    0.07919960  0.96180000  0.39070100 -0.58700000
O        O    0.07919960  0.46180100  0.89070000 -0.58700000
O        O    0.57920000  0.96180000  0.89070000 -0.58700000
O        O    0.61340100  0.36840100  0.27500000 -0.73100000
O        O    0.11340000  0.86840000  0.27500000 -0.73100000
O        O    0.11340000  0.36840100  0.77500000 -0.73100000
O        O    0.61340100  0.86840000  0.77500000 -0.73100000
O        O    0.63159900  0.35150100  0.25680000 -0.58700000
O        O    0.13160000  0.85150000  0.25680000 -0.58700000
O        O    0.13160000  0.35150100  0.75680000 -0.58700000
O        O    0.63159900  0.85150000  0.75680000 -0.58700000
C        C    0.58169900  0.42500000  0.40110000  0.11000000
C        C    0.08170010  0.92500000  0.40110000  0.11000000
C        C    0.08170010  0.42500000  0.90110000  0.11000000
C        C    0.58169900  0.92500000  0.90110000  0.11000000
C        C    0.57090000  0.43840100  0.41440000 -0.27400000
C        C    0.07089980  0.93840000  0.41440000 -0.27400000
C        C    0.07089980  0.43840100  0.91440000 -0.27400000
C        C    0.57090000  0.93840000  0.91440000 -0.27400000
C        C    0.57210100  0.45850100  0.40770100  0.84800000
C        C    0.07210000  0.95850000  0.40770100  0.84800000
C        C    0.07210000  0.45850100  0.90770000  0.84800000
C        C    0.57210100  0.95850000  0.90770000  0.84800000
C        C    0.76610100  0.29080000  0.33999900  0.11000000
C        C    0.26610000  0.79080000  0.33999900  0.11000000
C        C    0.26610000  0.29080000  0.84000000  0.11000000
C        C    0.76610100  0.79080000  0.84000000  0.11000000
C        C    0.75260000  0.27750000  0.33660100 -0.27400000
C        C    0.25260000  0.77750000  0.33660100 -0.27400000
C        C    0.25260000  0.27750000  0.83660000 -0.27400000
C        C    0.75260000  0.77750000  0.83660000 -0.27400000
C        C    0.73630000  0.28379900  0.32760000  0.84800000
C        C    0.23630000  0.78380000  0.32760000  0.84800000
C        C    0.23630000  0.28379900  0.82760100  0.84800000
C        C    0.73630000  0.78380000  0.82760100  0.84800000
C        C    0.67260000  0.35190000  0.29690000 -0.27400000
C        C    0.17260000  0.85190000  0.29690000 -0.27400000
C        C    0.17260000  0.35190000  0.79690100 -0.27400000
C        C    0.67260000  0.85190000  0.79690100 -0.27400000
C        C    0.66150000  0.35510000  0.28110000  0.11000000
C        C    0.16150000  0.85510000  0.28110000  0.11000000
C        C    0.16150000  0.35510000  0.78109900  0.11000000
C        C    0.66150000  0.85510000  0.78109900  0.11000000
C        C    0.64340000  0.36390000  0.28440000 -0.27400000
C        C    0.14340000  0.86390000  0.28440000 -0.27400000
C        C    0.14340000  0.36390000  0.78440000 -0.27400000
C        C    0.64340000  0.86390000  0.78440000 -0.27400000
C        C    0.63840000  0.37020000  0.30289900  0.11000000
C        C    0.13839900  0.87019900  0.30289900  0.11000000
C        C    0.13839900  0.37020000  0.80290000  0.11000000
C        C    0.63840000  0.87019900  0.80290000  0.11000000
C        C    0.65220000  0.36990000  0.31750100 -0.27400000
C        C    0.15219900  0.86990000  0.31750100 -0.27400000
C        C    0.15219900  0.36990000  0.81750000 -0.27400000
C        C    0.65220000  0.86990000  0.81750000 -0.27400000
C        C    0.67030000  0.36380000  0.31270000  0.11000000
C        C    0.17029900  0.86379900  0.31270000  0.11000000
C        C    0.17029900  0.36380000  0.81270100  0.11000000
C        C    0.67030000  0.86379900  0.81270100  0.11000000
C        C    0.64870000  0.37699900  0.33630000  0.84800000
C        C    0.14870000  0.87700000  0.33630000  0.84800000
C        C    0.14870000  0.37699900  0.83629900  0.84800000
C        C    0.64870000  0.87700000  0.83629900  0.84800000
C        C    0.62850000  0.36080000  0.27170000  0.84800000
C        C    0.12850000  0.86080000  0.27170000  0.84800000
C        C    0.12850000  0.36080000  0.77170000  0.84800000
C        C    0.62850000  0.86080000  0.77170000  0.84800000
C        C    0.68730000  0.33860000  0.29760000  0.84800000
C        C    0.18729900  0.83860000  0.29760000  0.84800000
C        C    0.18729900  0.33860000  0.79760000  0.84800000
C        C    0.68730000  0.83860000  0.79760000  0.84800000
C        C    0.62120000  0.28909900  0.26530000 -0.27400000
C        C    0.12120000  0.78910000  0.26530000 -0.27400000
C        C    0.12120000  0.28909900  0.76530000 -0.27400000
C        C    0.62120000  0.78910000  0.76530000 -0.27400000
C        C    0.64340000  0.29070000  0.26760000  0.11000000
C        C    0.14340000  0.79069900  0.26760000  0.11000000
C        C    0.14340000  0.29070000  0.76760000  0.11000000
C        C    0.64340000  0.79069900  0.76760000  0.11000000
C        C    0.55190100  0.36040000  0.24950000  0.84800000
C        C    0.05189990  0.86040000  0.24950000  0.84800000
C        C    0.05189990  0.36040000  0.74950000  0.84800000
C        C    0.55190100  0.86040000  0.74950000  0.84800000
H        H    0.68199200  0.32056800  0.36789200  0.10000000
H        H    0.18199100  0.82056700  0.36789200  0.10000000
H        H    0.18199100  0.32056800  0.86789200  0.10000000
H        H    0.68199200  0.82056700  0.86789200  0.10000000
H        H    0.66667600  0.26693900  0.35095500  0.10000000
H        H    0.16667600  0.76693900  0.35095500  0.10000000
H        H    0.16667600  0.26693900  0.85095400  0.10000000
H        H    0.66667600  0.76693900  0.85095400  0.10000000
H        H    0.85382400  0.39551600  0.31196900  0.10000000
H        H    0.35382300  0.89551600  0.31196900  0.10000000
H        H    0.35382300  0.39551600  0.81196800  0.10000000
H        H    0.85382400  0.89551600  0.81196800  0.10000000
H        H    0.58223200  0.38671300  0.42780300  0.10000000
H        H    0.08223090  0.88671400  0.42780300  0.10000000
H        H    0.08223090  0.38671300  0.92780400  0.10000000
H        H    0.58223200  0.88671400  0.92780400  0.10000000
H        H    0.55481300  0.43998900  0.43962400  0.10000000
H        H    0.05481190  0.93999000  0.43962400  0.10000000
H        H    0.05481190  0.43998900  0.93962300  0.10000000
H        H    0.55481300  0.93999000  0.93962300  0.10000000
H        H    0.62388800  0.37473900  0.44422000  0.10000000
H        H    0.12388700  0.87474000  0.44422000  0.10000000
H        H    0.12388700  0.37473900  0.94422000  0.10000000
H        H    0.62388800  0.87474000  0.94422000  0.10000000
H        H    0.76217200  0.30591800  0.34072900  0.10000000
H        H    0.26217300  0.80591800  0.34072900  0.10000000
H        H    0.26217300  0.30591800  0.84073000  0.10000000
H        H    0.76217200  0.80591800  0.84073000  0.10000000
H        H    0.65083900  0.30085300  0.26007200  0.10000000
H        H    0.15084000  0.80085200  0.26007200  0.10000000
H        H    0.15084000  0.30085300  0.76007100  0.10000000
H        H    0.65083900  0.80085200  0.76007100  0.10000000
Cr       Cr   0.44520000  0.04659990  0.27260000  1.85900000
Cr       Cr   0.94520000  0.54660100  0.27260000  1.85900000
Cr       Cr   0.94520000  0.04659990  0.77259900  1.85900000
Cr       Cr   0.44520000  0.54660100  0.77259900  1.85900000
Cr       Cr   0.48640000  0.16000000  0.36969900  1.62000000
Cr       Cr   0.98640000  0.66000100  0.36969900  1.62000000
Cr       Cr   0.98640000  0.16000000  0.86970000  1.62000000
Cr       Cr   0.48640000  0.66000100  0.86970000  1.62000000
O        O    0.90430000  0.45630000  0.31710000 -0.73100000
O        O    0.40430000  0.95630000  0.31710000 -0.73100000
O        O    0.40430000  0.45630000  0.81709900 -0.73100000
O        O    0.90430000  0.95630000  0.81709900 -0.73100000
O        O    0.88470000  0.43500000  0.33560100 -0.73100000
O        O    0.38470000  0.93500000  0.33560100 -0.73100000
O        O    0.38470000  0.43500000  0.83560000 -0.73100000
O        O    0.88470000  0.93500000  0.83560000 -0.73100000
O        O    0.40170000  0.08850060  0.37650000 -0.73100000
O        O    0.90170000  0.58850000  0.37650000 -0.73100000
O        O    0.90170000  0.08850060  0.87649900 -0.73100000
O        O    0.40170000  0.58850000  0.87649900 -0.73100000
O        O    0.37160100  0.15130000  0.39990000 -0.73100000
O        O    0.87160000  0.65130000  0.39990000 -0.73100000
O        O    0.87160000  0.15130000  0.89989900 -0.73100000
O        O    0.37160100  0.65130000  0.89989900 -0.73100000
O        O    0.40960000  0.11610100  0.38460000 -0.73100000
O        O    0.90960000  0.61610000  0.38460000 -0.73100000
O        O    0.90960000  0.11610100  0.88460000 -0.73100000
O        O    0.40960000  0.61610000  0.88460000 -0.73100000
O        O    0.42360100  0.01769960  0.30090000 -0.58700000
O        O    0.92360000  0.51770000  0.30090000 -0.58700000
O        O    0.92360000  0.01769960  0.80090000 -0.58700000
O        O    0.42360100  0.51770000  0.80090000 -0.58700000
O        O    0.43859900  0.05189990  0.33910000 -0.58700000
O        O    0.93860000  0.55190100  0.33910000 -0.58700000
O        O    0.93860000  0.05189990  0.83910000 -0.58700000
O        O    0.43859900  0.55190100  0.83910000 -0.58700000
O        O    0.42760000  0.02660010  0.27200100 -0.73100000
O        O    0.92760000  0.52659900  0.27200100 -0.73100000
O        O    0.92760000  0.02660010  0.77200000 -0.73100000
O        O    0.42760000  0.52659900  0.77200000 -0.73100000
O        O    0.02770020  0.48790000  0.28420000 -0.58700000
O        O    0.52769900  0.98789900  0.28420000 -0.58700000
O        O    0.52769900  0.48790000  0.78420100 -0.58700000
O        O    0.02770020  0.98789900  0.78420100 -0.58700000
O        O    0.45380000  0.06979980  0.27470000 -0.73100000
O        O    0.95380100  0.56980000  0.27470000 -0.73100000
O        O    0.95380100  0.06979980  0.77469900 -0.73100000
O        O    0.45380000  0.56980000  0.77469900 -0.73100000
O        O    0.46530000  0.05950010  0.32609900 -0.73100000
O        O    0.96530000  0.55949900  0.32609900 -0.73100000
O        O    0.96530000  0.05950010  0.82610000 -0.73100000
O        O    0.46530000  0.55949900  0.82610000 -0.73100000
O        O    0.50130000  0.19670100  0.34160000 -0.73100000
O        O    0.00130031  0.69670000  0.34160000 -0.73100000
O        O    0.00130031  0.19670100  0.84159900 -0.73100000
O        O    0.50130000  0.69670000  0.84159900 -0.73100000
O        O    0.33020100  0.17970100  0.47260000 -0.73100000
O        O    0.83020000  0.67970000  0.47260000 -0.73100000
O        O    0.83020000  0.17970100  0.97260000 -0.73100000
O        O    0.33020100  0.67970000  0.97260000 -0.73100000
O        O    0.49010000  0.18660000  0.36880000 -0.58700000
O        O    0.99010000  0.68660100  0.36880000 -0.58700000
O        O    0.99010000  0.18660000  0.86880000 -0.58700000
O        O    0.49010000  0.68660100  0.86880000 -0.58700000
O        O    0.35930000  0.17080000  0.46180100 -0.58700000
O        O    0.85930000  0.67079900  0.46180100 -0.58700000
O        O    0.85930000  0.17080000  0.96180000 -0.58700000
O        O    0.35930000  0.67079900  0.96180000 -0.58700000
O        O    0.47500000  0.13660000  0.36840100 -0.58700000
O        O    0.97500100  0.63660000  0.36840100 -0.58700000
O        O    0.97500100  0.13660000  0.86840000 -0.58700000
O        O    0.47500000  0.63660000  0.86840000 -0.58700000
O        O    0.49320000  0.11840000  0.35150100 -0.73100000
O        O    0.99319900  0.61840000  0.35150100 -0.73100000
O        O    0.99319900  0.11840000  0.85150000 -0.73100000
O        O    0.49320000  0.61840000  0.85150000 -0.73100000
F        F    0.47569900  0.16550000  0.39250000 -0.56600000
F        F    0.97570000  0.66549900  0.39250000 -0.56600000
F        F    0.97570000  0.16550000  0.89249900 -0.56600000
F        F    0.47569900  0.66549900  0.89249900 -0.56600000
C        C    0.34890000  0.16830000  0.42500000  0.11000000
C        C    0.84889900  0.66830000  0.42500000  0.11000000
C        C    0.84889900  0.16830000  0.92500000  0.11000000
C        C    0.34890000  0.66830000  0.92500000  0.11000000
C        C    0.33560100  0.17910000  0.43840100 -0.27400000
C        C    0.83560000  0.67910100  0.43840100 -0.27400000
C        C    0.83560000  0.17910000  0.93840000 -0.27400000
C        C    0.33560100  0.67910100  0.93840000 -0.27400000
C        C    0.34230000  0.17790000  0.45850100  0.84800000
C        C    0.84230000  0.67790000  0.45850100  0.84800000
C        C    0.84230000  0.17790000  0.95850000  0.84800000
C        C    0.34230000  0.67790000  0.95850000  0.84800000
C        C    0.91000000  0.48390000  0.29080000  0.11000000
C        C    0.40999900  0.98390000  0.29080000  0.11000000
C        C    0.40999900  0.48390000  0.79080000  0.11000000
C        C    0.91000000  0.98390000  0.79080000  0.11000000
C        C    0.91340000  0.49740000  0.27750000 -0.27400000
C        C    0.41340000  0.99739900  0.27750000 -0.27400000
C        C    0.41340000  0.49740000  0.77750000 -0.27400000
C        C    0.91340000  0.99739900  0.77750000 -0.27400000
C        C    0.42240000  0.01369990  0.28379900  0.84800000
C        C    0.92240000  0.51370100  0.28379900  0.84800000
C        C    0.92240000  0.01369990  0.78380000  0.84800000
C        C    0.42240000  0.51370100  0.78380000  0.84800000
C        C    0.45310000  0.07740000  0.35190000 -0.27400000
C        C    0.95310000  0.57740100  0.35190000 -0.27400000
C        C    0.95310000  0.07740000  0.85190000 -0.27400000
C        C    0.45310000  0.57740100  0.85190000 -0.27400000
C        C    0.46890000  0.08850060  0.35510000  0.11000000
C        C    0.96890000  0.58850000  0.35510000  0.11000000
C        C    0.96890000  0.08850060  0.85510000  0.11000000
C        C    0.46890000  0.58850000  0.85510000  0.11000000
C        C    0.46560000  0.10659900  0.36390000 -0.27400000
C        C    0.96559900  0.60660000  0.36390000 -0.27400000
C        C    0.96559900  0.10659900  0.86390000 -0.27400000
C        C    0.46560000  0.60660000  0.86390000 -0.27400000
C        C    0.44709900  0.11160000  0.37020000  0.11000000
C        C    0.94710000  0.61160000  0.37020000  0.11000000
C        C    0.94710000  0.11160000  0.87019900  0.11000000
C        C    0.44709900  0.61160000  0.87019900  0.11000000
C        C    0.43250000  0.09780030  0.36990000 -0.27400000
C        C    0.93250000  0.59780000  0.36990000 -0.27400000
C        C    0.93250000  0.09780030  0.86990000 -0.27400000
C        C    0.43250000  0.59780000  0.86990000 -0.27400000
C        C    0.43730100  0.07970020  0.36380000  0.11000000
C        C    0.93730000  0.57970000  0.36380000  0.11000000
C        C    0.93730000  0.07970020  0.86379900  0.11000000
C        C    0.43730100  0.57970000  0.86379900  0.11000000
C        C    0.41370000  0.10129900  0.37699900  0.84800000
C        C    0.91369900  0.60130000  0.37699900  0.84800000
C        C    0.91369900  0.10129900  0.87700000  0.84800000
C        C    0.41370000  0.60130000  0.87700000  0.84800000
C        C    0.47830000  0.12149900  0.36080000  0.84800000
C        C    0.97829900  0.62150000  0.36080000  0.84800000
C        C    0.97829900  0.12149900  0.86080000  0.84800000
C        C    0.47830000  0.62150000  0.86080000  0.84800000
C        C    0.45239900  0.06270020  0.33860000  0.84800000
C        C    0.95240000  0.56269900  0.33860000  0.84800000
C        C    0.95240000  0.06270020  0.83860000  0.84800000
C        C    0.45239900  0.56269900  0.83860000  0.84800000
C        C    0.48470000  0.12880100  0.28909900 -0.27400000
C        C    0.98469900  0.62880000  0.28909900 -0.27400000
C        C    0.98469900  0.12880100  0.78910000 -0.27400000
C        C    0.48470000  0.62880000  0.78910000 -0.27400000
C        C    0.48240000  0.10659900  0.29070000  0.11000000
C        C    0.98240100  0.60660000  0.29070000  0.11000000
C        C    0.98240100  0.10659900  0.79069900  0.11000000
C        C    0.48240000  0.60660000  0.79069900  0.11000000
C        C    0.50050000  0.19810000  0.36040000  0.84800000
C        C    0.00050065  0.69810000  0.36040000  0.84800000
C        C    0.00050065  0.19810000  0.86040000  0.84800000
C        C    0.50050000  0.69810000  0.86040000  0.84800000
H        H    0.38210700  0.06800840  0.32056800  0.10000000
H        H    0.88210800  0.56800900  0.32056800  0.10000000
H        H    0.88210800  0.06800840  0.82056700  0.10000000
H        H    0.38210700  0.56800900  0.82056700  0.10000000
H        H    0.39904600  0.08332410  0.26693900  0.10000000
H        H    0.89904500  0.58332500  0.26693900  0.10000000
H        H    0.89904500  0.08332410  0.76693900  0.10000000
H        H    0.39904600  0.58332500  0.76693900  0.10000000
H        H    0.32219600  0.16776900  0.38671300  0.10000000
H        H    0.82219600  0.66776800  0.38671300  0.10000000
H        H    0.82219600  0.16776900  0.88671400  0.10000000
H        H    0.32219600  0.66776800  0.88671400  0.10000000
H        H    0.31037600  0.19518800  0.43998900  0.10000000
H        H    0.81037700  0.69518700  0.43998900  0.10000000
H        H    0.81037700  0.19518800  0.93999000  0.10000000
H        H    0.31037600  0.69518700  0.93999000  0.10000000
H        H    0.30578000  0.12611200  0.37473900  0.10000000
H        H    0.80577900  0.62611200  0.37473900  0.10000000
H        H    0.80577900  0.12611200  0.87474000  0.10000000
H        H    0.30578000  0.62611200  0.87474000  0.10000000
H        H    0.90927000  0.48782700  0.30591800  0.10000000
H        H    0.40927000  0.98782700  0.30591800  0.10000000
H        H    0.40927000  0.48782700  0.80591800  0.10000000
H        H    0.90927000  0.98782700  0.80591800  0.10000000
H        H    0.48992900  0.09916100  0.30085300  0.10000000
H        H    0.98992800  0.59916000  0.30085300  0.10000000
H        H    0.98992800  0.09916100  0.80085200  0.10000000
H        H    0.48992900  0.59916000  0.80085200  0.10000000
Cr       Cr   0.30480100  0.04659990  0.47740000  1.85900000
Cr       Cr   0.80480000  0.54660100  0.47740000  1.85900000
Cr       Cr   0.80480000  0.04659990  0.97740000  1.85900000
Cr       Cr   0.30480100  0.54660100  0.97740000  1.85900000
Cr       Cr   0.26359900  0.16000000  0.38029900  1.85900000
Cr       Cr   0.76360000  0.66000100  0.38029900  1.85900000
Cr       Cr   0.76360000  0.16000000  0.88030000  1.85900000
Cr       Cr   0.26359900  0.66000100  0.88030000  1.85900000
O        O    0.84569900  0.45630000  0.43290000 -0.58700000
O        O    0.34570000  0.95630000  0.43290000 -0.58700000
O        O    0.34570000  0.45630000  0.93290000 -0.58700000
O        O    0.84569900  0.95630000  0.93290000 -0.58700000
O        O    0.86530000  0.43500000  0.41440000 -0.58700000
O        O    0.36530100  0.93500000  0.41440000 -0.58700000
O        O    0.36530100  0.43500000  0.91440000 -0.58700000
O        O    0.86530000  0.93500000  0.91440000 -0.58700000
O        O    0.34830100  0.08850060  0.37350000 -0.73100000
O        O    0.84830000  0.58850000  0.37350000 -0.73100000
O        O    0.84830000  0.08850060  0.87350000 -0.73100000
O        O    0.34830100  0.58850000  0.87350000 -0.73100000
O        O    0.37840000  0.15130000  0.35010000 -0.58700000
O        O    0.87840000  0.65130000  0.35010000 -0.58700000
O        O    0.87840000  0.15130000  0.85010000 -0.58700000
O        O    0.37840000  0.65130000  0.85010000 -0.58700000
O        O    0.34040000  0.11610100  0.36539900 -0.58700000
O        O    0.84040100  0.61610000  0.36539900 -0.58700000
O        O    0.84040100  0.11610100  0.86540000 -0.58700000
O        O    0.34040000  0.61610000  0.86540000 -0.58700000
O        O    0.32640000  0.01769960  0.44910100 -0.73100000
O        O    0.82640000  0.51770000  0.44910100 -0.73100000
O        O    0.82640000  0.01769960  0.94910000 -0.73100000
O        O    0.32640000  0.51770000  0.94910000 -0.73100000
O        O    0.31140000  0.05189990  0.41090100 -0.73100000
O        O    0.81140000  0.55190100  0.41090100 -0.73100000
O        O    0.81140000  0.05189990  0.91090000 -0.73100000
O        O    0.31140000  0.55190100  0.91090000 -0.73100000
O        O    0.32240000  0.02660010  0.47800000 -0.73100000
O        O    0.82239900  0.52659900  0.47800000 -0.73100000
O        O    0.82239900  0.02660010  0.97800000 -0.73100000
O        O    0.32240000  0.52659900  0.97800000 -0.73100000
O        O    0.72230000  0.48790000  0.46580000 -0.73100000
O        O    0.22229900  0.98789900  0.46580000 -0.73100000
O        O    0.22229900  0.48790000  0.96580000 -0.73100000
O        O    0.72230000  0.98789900  0.96580000 -0.73100000
O        O    0.29620000  0.06979980  0.47530000 -0.73100000
O        O    0.79620000  0.56980000  0.47530000 -0.73100000
O        O    0.79620000  0.06979980  0.97530000 -0.73100000
O        O    0.29620000  0.56980000  0.97530000 -0.73100000
O        O    0.28470100  0.05950010  0.42390000 -0.58700000
O        O    0.78470000  0.55949900  0.42390000 -0.58700000
O        O    0.78470000  0.05950010  0.92390000 -0.58700000
O        O    0.28470100  0.55949900  0.92390000 -0.58700000
O        O    0.24869900  0.19670100  0.40840000 -0.58700000
O        O    0.74870000  0.69670000  0.40840000 -0.58700000
O        O    0.74870000  0.19670100  0.90839900 -0.58700000
O        O    0.24869900  0.69670000  0.90839900 -0.58700000
O        O    0.41980000  0.17970100  0.27739900 -0.58700000
O        O    0.91980100  0.67970000  0.27739900 -0.58700000
O        O    0.91980100  0.17970100  0.77740000 -0.58700000
O        O    0.41980000  0.67970000  0.77740000 -0.58700000
O        O    0.25990000  0.18660000  0.38120100 -0.73100000
O        O    0.75989900  0.68660100  0.38120100 -0.73100000
O        O    0.75989900  0.18660000  0.88120000 -0.73100000
O        O    0.25990000  0.68660100  0.88120000 -0.73100000
O        O    0.39070100  0.17080000  0.28820000 -0.73100000
O        O    0.89070000  0.67079900  0.28820000 -0.73100000
O        O    0.89070000  0.17080000  0.78820000 -0.73100000
O        O    0.39070100  0.67079900  0.78820000 -0.73100000
O        O    0.27500000  0.13660000  0.38160000 -0.73100000
O        O    0.77500000  0.63660000  0.38160000 -0.73100000
O        O    0.77500000  0.13660000  0.88160000 -0.73100000
O        O    0.27500000  0.63660000  0.88160000 -0.73100000
O        O    0.25680000  0.11840000  0.39850000 -0.73100000
O        O    0.75680000  0.61840000  0.39850000 -0.73100000
O        O    0.75680000  0.11840000  0.89850000 -0.73100000
O        O    0.25680000  0.61840000  0.89850000 -0.73100000
C        C    0.40110000  0.16830000  0.32500100  0.11000000
C        C    0.90110000  0.66830000  0.32500100  0.11000000
C        C    0.90110000  0.16830000  0.82500000  0.11000000
C        C    0.40110000  0.66830000  0.82500000  0.11000000
C        C    0.41440000  0.17910000  0.31160000 -0.27400000
C        C    0.91440000  0.67910100  0.31160000 -0.27400000
C        C    0.91440000  0.17910000  0.81160000 -0.27400000
C        C    0.41440000  0.67910100  0.81160000 -0.27400000
C        C    0.40770100  0.17790000  0.29150000  0.84800000
C        C    0.90770000  0.67790000  0.29150000  0.84800000
C        C    0.90770000  0.17790000  0.79150100  0.84800000
C        C    0.40770100  0.67790000  0.79150100  0.84800000
C        C    0.84000000  0.48390000  0.45920000  0.11000000
C        C    0.33999900  0.98390000  0.45920000  0.11000000
C        C    0.33999900  0.48390000  0.95919900  0.11000000
C        C    0.84000000  0.98390000  0.95919900  0.11000000
C        C    0.83660000  0.49740000  0.47249900 -0.27400000
C        C    0.33660100  0.99739900  0.47249900 -0.27400000
C        C    0.33660100  0.49740000  0.97250000 -0.27400000
C        C    0.83660000  0.99739900  0.97250000 -0.27400000
C        C    0.32760000  0.01369990  0.46619900  0.84800000
C        C    0.82760100  0.51370100  0.46619900  0.84800000
C        C    0.82760100  0.01369990  0.96620000  0.84800000
C        C    0.32760000  0.51370100  0.96620000  0.84800000
C        C    0.29690000  0.07740000  0.39810100 -0.27400000
C        C    0.79690100  0.57740100  0.39810100 -0.27400000
C        C    0.79690100  0.07740000  0.89810000 -0.27400000
C        C    0.29690000  0.57740100  0.89810000 -0.27400000
C        C    0.28110000  0.08850060  0.39490100  0.11000000
C        C    0.78109900  0.58850000  0.39490100  0.11000000
C        C    0.78109900  0.08850060  0.89490000  0.11000000
C        C    0.28110000  0.58850000  0.89490000  0.11000000
C        C    0.28440000  0.10659900  0.38610000 -0.27400000
C        C    0.78440000  0.60660000  0.38610000 -0.27400000
C        C    0.78440000  0.10659900  0.88609900 -0.27400000
C        C    0.28440000  0.60660000  0.88609900 -0.27400000
C        C    0.30289900  0.11160000  0.37980000  0.11000000
C        C    0.80290000  0.61160000  0.37980000  0.11000000
C        C    0.80290000  0.11160000  0.87980000  0.11000000
C        C    0.30289900  0.61160000  0.87980000  0.11000000
C        C    0.31750100  0.09780030  0.38010100 -0.27400000
C        C    0.81750000  0.59780000  0.38010100 -0.27400000
C        C    0.81750000  0.09780030  0.88010000 -0.27400000
C        C    0.31750100  0.59780000  0.88010000 -0.27400000
C        C    0.31270000  0.07970020  0.38620000  0.11000000
C        C    0.81270100  0.57970000  0.38620000  0.11000000
C        C    0.81270100  0.07970020  0.88620000  0.11000000
C        C    0.31270000  0.57970000  0.88620000  0.11000000
C        C    0.33630000  0.10129900  0.37300000  0.84800000
C        C    0.83629900  0.60130000  0.37300000  0.84800000
C        C    0.83629900  0.10129900  0.87300000  0.84800000
C        C    0.33630000  0.60130000  0.87300000  0.84800000
C        C    0.27170000  0.12149900  0.38920000  0.84800000
C        C    0.77170000  0.62150000  0.38920000  0.84800000
C        C    0.77170000  0.12149900  0.88920100  0.84800000
C        C    0.27170000  0.62150000  0.88920100  0.84800000
C        C    0.29760000  0.06270020  0.41140000  0.84800000
C        C    0.79760000  0.56269900  0.41140000  0.84800000
C        C    0.79760000  0.06270020  0.91140100  0.84800000
C        C    0.29760000  0.56269900  0.91140100  0.84800000
C        C    0.26530000  0.12880100  0.46089900 -0.27400000
C        C    0.76530000  0.62880000  0.46089900 -0.27400000
C        C    0.76530000  0.12880100  0.96090000 -0.27400000
C        C    0.26530000  0.62880000  0.96090000 -0.27400000
C        C    0.26760000  0.10659900  0.45930000  0.11000000
C        C    0.76760000  0.60660000  0.45930000  0.11000000
C        C    0.76760000  0.10659900  0.95929900  0.11000000
C        C    0.26760000  0.60660000  0.95929900  0.11000000
C        C    0.24950000  0.19810000  0.38960100  0.84800000
C        C    0.74950000  0.69810000  0.38960100  0.84800000
C        C    0.74950000  0.19810000  0.88960000  0.84800000
C        C    0.24950000  0.69810000  0.88960000  0.84800000
H        H    0.36789200  0.06800840  0.42943300  0.10000000
H        H    0.86789200  0.56800900  0.42943300  0.10000000
H        H    0.86789200  0.06800840  0.92943400  0.10000000
H        H    0.36789200  0.56800900  0.92943400  0.10000000
H        H    0.35095500  0.08332410  0.48306100  0.10000000
H        H    0.85095400  0.58332500  0.48306100  0.10000000
H        H    0.85095400  0.08332410  0.98306000  0.10000000
H        H    0.35095500  0.58332500  0.98306000  0.10000000
H        H    0.42780300  0.16776900  0.36328600  0.10000000
H        H    0.92780400  0.66776800  0.36328600  0.10000000
H        H    0.92780400  0.16776900  0.86328600  0.10000000
H        H    0.42780300  0.66776800  0.86328600  0.10000000
H        H    0.43962400  0.19518800  0.31001100  0.10000000
H        H    0.93962300  0.69518700  0.31001100  0.10000000
H        H    0.93962300  0.19518800  0.81001100  0.10000000
H        H    0.43962400  0.69518700  0.81001100  0.10000000
H        H    0.44422000  0.12611200  0.37526000  0.10000000
H        H    0.94422000  0.62611200  0.37526000  0.10000000
H        H    0.94422000  0.12611200  0.87526100  0.10000000
H        H    0.44422000  0.62611200  0.87526100  0.10000000
H        H    0.84073000  0.48782700  0.44408200  0.10000000
H        H    0.34072900  0.98782700  0.44408200  0.10000000
H        H    0.34072900  0.48782700  0.94408300  0.10000000
H        H    0.84073000  0.98782700  0.94408300  0.10000000
H        H    0.26007200  0.09916100  0.44914700  0.10000000
H        H    0.76007100  0.59916000  0.44914700  0.10000000
H        H    0.76007100  0.09916100  0.94914800  0.10000000
H        H    0.26007200  0.59916000  0.94914800  0.10000000
Cr       Cr   0.94520000  0.20340000  0.47740000  1.62000000
Cr       Cr   0.44520000  0.70340000  0.47740000  1.62000000
Cr       Cr   0.44520000  0.20340000  0.97740000  1.62000000
Cr       Cr   0.94520000  0.70340000  0.97740000  1.62000000
Cr       Cr   0.98640000  0.08999980  0.38029900  1.85900000
Cr       Cr   0.48640000  0.59000100  0.38029900  1.85900000
Cr       Cr   0.48640000  0.08999980  0.88030000  1.85900000
Cr       Cr   0.98640000  0.59000100  0.88030000  1.85900000
O        O    0.90430000  0.29370000  0.43290000 -0.73100000
O        O    0.40430000  0.79370100  0.43290000 -0.73100000
O        O    0.40430000  0.29370000  0.93290000 -0.73100000
O        O    0.90430000  0.79370100  0.93290000 -0.73100000
O        O    0.88470000  0.31500000  0.41440000 -0.73100000
O        O    0.38470000  0.81499900  0.41440000 -0.73100000
O        O    0.38470000  0.31500000  0.91440000 -0.73100000
O        O    0.88470000  0.81499900  0.91440000 -0.73100000
O        O    0.90170000  0.16150000  0.37350000 -0.73100000
O        O    0.40170000  0.66150000  0.37350000 -0.73100000
O        O    0.40170000  0.16150000  0.87350000 -0.73100000
O        O    0.90170000  0.66150000  0.87350000 -0.73100000
O        O    0.87160000  0.09870010  0.35010000 -0.58700000
O        O    0.37160100  0.59869900  0.35010000 -0.58700000
O        O    0.37160100  0.09870010  0.85010000 -0.58700000
O        O    0.87160000  0.59869900  0.85010000 -0.58700000
O        O    0.90960000  0.13390000  0.36539900 -0.58700000
O        O    0.40960000  0.63390000  0.36539900 -0.58700000
O        O    0.40960000  0.13390000  0.86540000 -0.58700000
O        O    0.90960000  0.63390000  0.86540000 -0.58700000
O        O    0.92360000  0.23230000  0.44910100 -0.73100000
O        O    0.42360100  0.73229900  0.44910100 -0.73100000
O        O    0.42360100  0.23230000  0.94910000 -0.73100000
O        O    0.92360000  0.73229900  0.94910000 -0.73100000
O        O    0.93860000  0.19810000  0.41090100 -0.73100000
O        O    0.43859900  0.69810000  0.41090100 -0.73100000
O        O    0.43859900  0.19810000  0.91090000 -0.73100000
O        O    0.93860000  0.69810000  0.91090000 -0.73100000
O        O    0.92760000  0.22340000  0.47800000 -0.58700000
O        O    0.42760000  0.72340000  0.47800000 -0.58700000
O        O    0.42760000  0.22340000  0.97800000 -0.58700000
O        O    0.92760000  0.72340000  0.97800000 -0.58700000
O        O    0.02770020  0.26210000  0.46580000 -0.73100000
O        O    0.52769900  0.76210000  0.46580000 -0.73100000
O        O    0.52769900  0.26210000  0.96580000 -0.73100000
O        O    0.02770020  0.76210000  0.96580000 -0.73100000
O        O    0.95380100  0.18020000  0.47530000 -0.58700000
O        O    0.45380000  0.68020100  0.47530000 -0.58700000
O        O    0.45380000  0.18020000  0.97530000 -0.58700000
O        O    0.95380100  0.68020100  0.97530000 -0.58700000
O        O    0.96530000  0.19050000  0.42390000 -0.73100000
O        O    0.46530000  0.69050000  0.42390000 -0.73100000
O        O    0.46530000  0.19050000  0.92390000 -0.73100000
O        O    0.96530000  0.69050000  0.92390000 -0.73100000
O        O    0.00130031  0.05330040  0.40840000 -0.58700000
O        O    0.50130000  0.55330000  0.40840000 -0.58700000
O        O    0.50130000  0.05330040  0.90839900 -0.58700000
O        O    0.00130031  0.55330000  0.90839900 -0.58700000
O        O    0.83020000  0.07030040  0.27739900 -0.58700000
O        O    0.33020100  0.57030000  0.27739900 -0.58700000
O        O    0.33020100  0.07030040  0.77740000 -0.58700000
O        O    0.83020000  0.57030000  0.77740000 -0.58700000
O        O    0.99010000  0.06339970  0.38120100 -0.73100000
O        O    0.49010000  0.56340000  0.38120100 -0.73100000
O        O    0.49010000  0.06339970  0.88120000 -0.73100000
O        O    0.99010000  0.56340000  0.88120000 -0.73100000
O        O    0.85930000  0.07919960  0.28820000 -0.73100000
O        O    0.35930000  0.57920000  0.28820000 -0.73100000
O        O    0.35930000  0.07919960  0.78820000 -0.73100000
O        O    0.85930000  0.57920000  0.78820000 -0.73100000
O        O    0.97500100  0.11340000  0.38160000 -0.73100000
O        O    0.47500000  0.61340100  0.38160000 -0.73100000
O        O    0.47500000  0.11340000  0.88160000 -0.73100000
O        O    0.97500100  0.61340100  0.88160000 -0.73100000
O        O    0.99319900  0.13160000  0.39850000 -0.73100000
O        O    0.49320000  0.63159900  0.39850000 -0.73100000
O        O    0.49320000  0.13160000  0.89850000 -0.73100000
O        O    0.99319900  0.63159900  0.89850000 -0.73100000
F        F    0.43480000  0.19830000  0.00140044 -0.56600000
F        F    0.93480100  0.69829900  0.00140044 -0.56600000
F        F    0.93480100  0.19830000  0.50140000 -0.56600000
F        F    0.43480000  0.69829900  0.50140000 -0.56600000
C        C    0.84889900  0.08170010  0.32500100  0.11000000
C        C    0.34890000  0.58169900  0.32500100  0.11000000
C        C    0.34890000  0.08170010  0.82500000  0.11000000
C        C    0.84889900  0.58169900  0.82500000  0.11000000
C        C    0.83560000  0.07089980  0.31160000 -0.27400000
C        C    0.33560100  0.57090000  0.31160000 -0.27400000
C        C    0.33560100  0.07089980  0.81160000 -0.27400000
C        C    0.83560000  0.57090000  0.81160000 -0.27400000
C        C    0.84230000  0.07210000  0.29150000  0.84800000
C        C    0.34230000  0.57210100  0.29150000  0.84800000
C        C    0.34230000  0.07210000  0.79150100  0.84800000
C        C    0.84230000  0.57210100  0.79150100  0.84800000
C        C    0.91000000  0.26610000  0.45920000  0.11000000
C        C    0.40999900  0.76610100  0.45920000  0.11000000
C        C    0.40999900  0.26610000  0.95919900  0.11000000
C        C    0.91000000  0.76610100  0.95919900  0.11000000
C        C    0.91340000  0.25260000  0.47249900 -0.27400000
C        C    0.41340000  0.75260000  0.47249900 -0.27400000
C        C    0.41340000  0.25260000  0.97250000 -0.27400000
C        C    0.91340000  0.75260000  0.97250000 -0.27400000
C        C    0.92240000  0.23630000  0.46619900  0.84800000
C        C    0.42240000  0.73630000  0.46619900  0.84800000
C        C    0.42240000  0.23630000  0.96620000  0.84800000
C        C    0.92240000  0.73630000  0.96620000  0.84800000
C        C    0.95310000  0.17260000  0.39810100 -0.27400000
C        C    0.45310000  0.67260000  0.39810100 -0.27400000
C        C    0.45310000  0.17260000  0.89810000 -0.27400000
C        C    0.95310000  0.67260000  0.89810000 -0.27400000
C        C    0.96890000  0.16150000  0.39490100  0.11000000
C        C    0.46890000  0.66150000  0.39490100  0.11000000
C        C    0.46890000  0.16150000  0.89490000  0.11000000
C        C    0.96890000  0.66150000  0.89490000  0.11000000
C        C    0.96559900  0.14340000  0.38610000 -0.27400000
C        C    0.46560000  0.64340000  0.38610000 -0.27400000
C        C    0.46560000  0.14340000  0.88609900 -0.27400000
C        C    0.96559900  0.64340000  0.88609900 -0.27400000
C        C    0.94710000  0.13839900  0.37980000  0.11000000
C        C    0.44709900  0.63840000  0.37980000  0.11000000
C        C    0.44709900  0.13839900  0.87980000  0.11000000
C        C    0.94710000  0.63840000  0.87980000  0.11000000
C        C    0.93250000  0.15219900  0.38010100 -0.27400000
C        C    0.43250000  0.65220000  0.38010100 -0.27400000
C        C    0.43250000  0.15219900  0.88010000 -0.27400000
C        C    0.93250000  0.65220000  0.88010000 -0.27400000
C        C    0.93730000  0.17029900  0.38620000  0.11000000
C        C    0.43730100  0.67030000  0.38620000  0.11000000
C        C    0.43730100  0.17029900  0.88620000  0.11000000
C        C    0.93730000  0.67030000  0.88620000  0.11000000
C        C    0.91369900  0.14870000  0.37300000  0.84800000
C        C    0.41370000  0.64870000  0.37300000  0.84800000
C        C    0.41370000  0.14870000  0.87300000  0.84800000
C        C    0.91369900  0.64870000  0.87300000  0.84800000
C        C    0.97829900  0.12850000  0.38920000  0.84800000
C        C    0.47830000  0.62850000  0.38920000  0.84800000
C        C    0.47830000  0.12850000  0.88920100  0.84800000
C        C    0.97829900  0.62850000  0.88920100  0.84800000
C        C    0.95240000  0.18729900  0.41140000  0.84800000
C        C    0.45239900  0.68730000  0.41140000  0.84800000
C        C    0.45239900  0.18729900  0.91140100  0.84800000
C        C    0.95240000  0.68730000  0.91140100  0.84800000
C        C    0.98469900  0.12120000  0.46089900 -0.27400000
C        C    0.48470000  0.62120000  0.46089900 -0.27400000
C        C    0.48470000  0.12120000  0.96090000 -0.27400000
C        C    0.98469900  0.62120000  0.96090000 -0.27400000
C        C    0.98240100  0.14340000  0.45930000  0.11000000
C        C    0.48240000  0.64340000  0.45930000  0.11000000
C        C    0.48240000  0.14340000  0.95929900  0.11000000
C        C    0.98240100  0.64340000  0.95929900  0.11000000
C        C    0.00050065  0.05189990  0.38960100  0.84800000
C        C    0.50050000  0.55190100  0.38960100  0.84800000
C        C    0.50050000  0.05189990  0.88960000  0.84800000
C        C    0.00050065  0.55190100  0.88960000  0.84800000
H        H    0.88210800  0.18199100  0.42943300  0.10000000
H        H    0.38210700  0.68199200  0.42943300  0.10000000
H        H    0.38210700  0.18199100  0.92943400  0.10000000
H        H    0.88210800  0.68199200  0.92943400  0.10000000
H        H    0.89904500  0.16667600  0.48306100  0.10000000
H        H    0.39904600  0.66667600  0.48306100  0.10000000
H        H    0.39904600  0.16667600  0.98306000  0.10000000
H        H    0.89904500  0.66667600  0.98306000  0.10000000
H        H    0.93803200  0.35382300  0.35448400  0.10000000
H        H    0.43803200  0.85382400  0.35448400  0.10000000
H        H    0.43803200  0.35382300  0.85448300  0.10000000
H        H    0.93803200  0.85382400  0.85448300  0.10000000
H        H    0.82219600  0.08223090  0.36328600  0.10000000
H        H    0.32219600  0.58223200  0.36328600  0.10000000
H        H    0.32219600  0.08223090  0.86328600  0.10000000
H        H    0.82219600  0.58223200  0.86328600  0.10000000
H        H    0.81037700  0.05481190  0.31001100  0.10000000
H        H    0.31037600  0.55481300  0.31001100  0.10000000
H        H    0.31037600  0.05481190  0.81001100  0.10000000
H        H    0.81037700  0.55481300  0.81001100  0.10000000
H        H    0.80577900  0.12388700  0.37526000  0.10000000
H        H    0.30578000  0.62388800  0.37526000  0.10000000
H        H    0.30578000  0.12388700  0.87526100  0.10000000
H        H    0.80577900  0.62388800  0.87526100  0.10000000
H        H    0.90927000  0.26217300  0.44408200  0.10000000
H        H    0.40927000  0.76217200  0.44408200  0.10000000
H        H    0.40927000  0.26217300  0.94408300  0.10000000
H        H    0.90927000  0.76217200  0.94408300  0.10000000
H        H    0.98992800  0.15084000  0.44914700  0.10000000
H        H    0.48992900  0.65083900  0.44914700  0.10000000
H        H    0.48992900  0.15084000  0.94914800  0.10000000
H        H    0.98992800  0.65083900  0.94914800  0.10000000
Cr       Cr   0.80480000  0.20340000  0.27260000  1.85900000
Cr       Cr   0.30480100  0.70340000  0.27260000  1.85900000
Cr       Cr   0.30480100  0.20340000  0.77259900  1.85900000
Cr       Cr   0.80480000  0.70340000  0.77259900  1.85900000
Cr       Cr   0.76360000  0.08999980  0.36969900  1.85900000
Cr       Cr   0.26359900  0.59000100  0.36969900  1.85900000
Cr       Cr   0.26359900  0.08999980  0.86970000  1.85900000
Cr       Cr   0.76360000  0.59000100  0.86970000  1.85900000
O        O    0.84569900  0.29370000  0.31710000 -0.73100000
O        O    0.34570000  0.79370100  0.31710000 -0.73100000
O        O    0.34570000  0.29370000  0.81709900 -0.73100000
O        O    0.84569900  0.79370100  0.81709900 -0.73100000
O        O    0.86530000  0.31500000  0.33560100 -0.73100000
O        O    0.36530100  0.81499900  0.33560100 -0.73100000
O        O    0.36530100  0.31500000  0.83560000 -0.73100000
O        O    0.86530000  0.81499900  0.83560000 -0.73100000
O        O    0.84830000  0.16150000  0.37650000 -0.73100000
O        O    0.34830100  0.66150000  0.37650000 -0.73100000
O        O    0.34830100  0.16150000  0.87649900 -0.73100000
O        O    0.84830000  0.66150000  0.87649900 -0.73100000
O        O    0.87840000  0.09870010  0.39990000 -0.73100000
O        O    0.37840000  0.59869900  0.39990000 -0.73100000
O        O    0.37840000  0.09870010  0.89989900 -0.73100000
O        O    0.87840000  0.59869900  0.89989900 -0.73100000
O        O    0.84040100  0.13390000  0.38460000 -0.73100000
O        O    0.34040000  0.63390000  0.38460000 -0.73100000
O        O    0.34040000  0.13390000  0.88460000 -0.73100000
O        O    0.84040100  0.63390000  0.88460000 -0.73100000
O        O    0.82640000  0.23230000  0.30090000 -0.58700000
O        O    0.32640000  0.73229900  0.30090000 -0.58700000
O        O    0.32640000  0.23230000  0.80090000 -0.58700000
O        O    0.82640000  0.73229900  0.80090000 -0.58700000
O        O    0.81140000  0.19810000  0.33910000 -0.58700000
O        O    0.31140000  0.69810000  0.33910000 -0.58700000
O        O    0.31140000  0.19810000  0.83910000 -0.58700000
O        O    0.81140000  0.69810000  0.83910000 -0.58700000
O        O    0.82239900  0.22340000  0.27200100 -0.73100000
O        O    0.32240000  0.72340000  0.27200100 -0.73100000
O        O    0.32240000  0.22340000  0.77200000 -0.73100000
O        O    0.82239900  0.72340000  0.77200000 -0.73100000
O        O    0.72230000  0.26210000  0.28420000 -0.73100000
O        O    0.22229900  0.76210000  0.28420000 -0.73100000
O        O    0.22229900  0.26210000  0.78420100 -0.73100000
O        O    0.72230000  0.76210000  0.78420100 -0.73100000
O        O    0.79620000  0.18020000  0.27470000 -0.73100000
O        O    0.29620000  0.68020100  0.27470000 -0.73100000
O        O    0.29620000  0.18020000  0.77469900 -0.73100000
O        O    0.79620000  0.68020100  0.77469900 -0.73100000
O        O    0.78470000  0.19050000  0.32609900 -0.73100000
O        O    0.28470100  0.69050000  0.32609900 -0.73100000
O        O    0.28470100  0.19050000  0.82610000 -0.73100000
O        O    0.78470000  0.69050000  0.82610000 -0.73100000
O        O    0.74870000  0.05330040  0.34160000 -0.73100000
O        O    0.24869900  0.55330000  0.34160000 -0.73100000
O        O    0.24869900  0.05330040  0.84159900 -0.73100000
O        O    0.74870000  0.55330000  0.84159900 -0.73100000
O        O    0.91980100  0.07030040  0.47260000 -0.73100000
O        O    0.41980000  0.57030000  0.47260000 -0.73100000
O        O    0.41980000  0.07030040  0.97260000 -0.73100000
O        O    0.91980100  0.57030000  0.97260000 -0.73100000
O        O    0.75989900  0.06339970  0.36880000 -0.73100000
O        O    0.25990000  0.56340000  0.36880000 -0.73100000
O        O    0.25990000  0.06339970  0.86880000 -0.73100000
O        O    0.75989900  0.56340000  0.86880000 -0.73100000
O        O    0.89070000  0.07919960  0.46180100 -0.58700000
O        O    0.39070100  0.57920000  0.46180100 -0.58700000
O        O    0.39070100  0.07919960  0.96180000 -0.58700000
O        O    0.89070000  0.57920000  0.96180000 -0.58700000
O        O    0.77500000  0.11340000  0.36840100 -0.73100000
O        O    0.27500000  0.61340100  0.36840100 -0.73100000
O        O    0.27500000  0.11340000  0.86840000 -0.73100000
O        O    0.77500000  0.61340100  0.86840000 -0.73100000
O        O    0.75680000  0.13160000  0.35150100 -0.58700000
O        O    0.25680000  0.63159900  0.35150100 -0.58700000
O        O    0.25680000  0.13160000  0.85150000 -0.58700000
O        O    0.75680000  0.63159900  0.85150000 -0.58700000
C        C    0.90110000  0.08170010  0.42500000  0.11000000
C        C    0.40110000  0.58169900  0.42500000  0.11000000
C        C    0.40110000  0.08170010  0.92500000  0.11000000
C        C    0.90110000  0.58169900  0.92500000  0.11000000
C        C    0.91440000  0.07089980  0.43840100 -0.27400000
C        C    0.41440000  0.57090000  0.43840100 -0.27400000
C        C    0.41440000  0.07089980  0.93840000 -0.27400000
C        C    0.91440000  0.57090000  0.93840000 -0.27400000
C        C    0.90770000  0.07210000  0.45850100  0.84800000
C        C    0.40770100  0.57210100  0.45850100  0.84800000
C        C    0.40770100  0.07210000  0.95850000  0.84800000
C        C    0.90770000  0.57210100  0.95850000  0.84800000
C        C    0.84000000  0.26610000  0.29080000  0.11000000
C        C    0.33999900  0.76610100  0.29080000  0.11000000
C        C    0.33999900  0.26610000  0.79080000  0.11000000
C        C    0.84000000  0.76610100  0.79080000  0.11000000
C        C    0.83660000  0.25260000  0.27750000 -0.27400000
C        C    0.33660100  0.75260000  0.27750000 -0.27400000
C        C    0.33660100  0.25260000  0.77750000 -0.27400000
C        C    0.83660000  0.75260000  0.77750000 -0.27400000
C        C    0.82760100  0.23630000  0.28379900  0.84800000
C        C    0.32760000  0.73630000  0.28379900  0.84800000
C        C    0.32760000  0.23630000  0.78380000  0.84800000
C        C    0.82760100  0.73630000  0.78380000  0.84800000
C        C    0.79690100  0.17260000  0.35190000 -0.27400000
C        C    0.29690000  0.67260000  0.35190000 -0.27400000
C        C    0.29690000  0.17260000  0.85190000 -0.27400000
C        C    0.79690100  0.67260000  0.85190000 -0.27400000
C        C    0.78109900  0.16150000  0.35510000  0.11000000
C        C    0.28110000  0.66150000  0.35510000  0.11000000
C        C    0.28110000  0.16150000  0.85510000  0.11000000
C        C    0.78109900  0.66150000  0.85510000  0.11000000
C        C    0.78440000  0.14340000  0.36390000 -0.27400000
C        C    0.28440000  0.64340000  0.36390000 -0.27400000
C        C    0.28440000  0.14340000  0.86390000 -0.27400000
C        C    0.78440000  0.64340000  0.86390000 -0.27400000
C        C    0.80290000  0.13839900  0.37020000  0.11000000
C        C    0.30289900  0.63840000  0.37020000  0.11000000
C        C    0.30289900  0.13839900  0.87019900  0.11000000
C        C    0.80290000  0.63840000  0.87019900  0.11000000
C        C    0.81750000  0.15219900  0.36990000 -0.27400000
C        C    0.31750100  0.65220000  0.36990000 -0.27400000
C        C    0.31750100  0.15219900  0.86990000 -0.27400000
C        C    0.81750000  0.65220000  0.86990000 -0.27400000
C        C    0.81270100  0.17029900  0.36380000  0.11000000
C        C    0.31270000  0.67030000  0.36380000  0.11000000
C        C    0.31270000  0.17029900  0.86379900  0.11000000
C        C    0.81270100  0.67030000  0.86379900  0.11000000
C        C    0.83629900  0.14870000  0.37699900  0.84800000
C        C    0.33630000  0.64870000  0.37699900  0.84800000
C        C    0.33630000  0.14870000  0.87700000  0.84800000
C        C    0.83629900  0.64870000  0.87700000  0.84800000
C        C    0.77170000  0.12850000  0.36080000  0.84800000
C        C    0.27170000  0.62850000  0.36080000  0.84800000
C        C    0.27170000  0.12850000  0.86080000  0.84800000
C        C    0.77170000  0.62850000  0.86080000  0.84800000
C        C    0.79760000  0.18729900  0.33860000  0.84800000
C        C    0.29760000  0.68730000  0.33860000  0.84800000
C        C    0.29760000  0.18729900  0.83860000  0.84800000
C        C    0.79760000  0.68730000  0.83860000  0.84800000
C        C    0.76530000  0.12120000  0.28909900 -0.27400000
C        C    0.26530000  0.62120000  0.28909900 -0.27400000
C        C    0.26530000  0.12120000  0.78910000 -0.27400000
C        C    0.76530000  0.62120000  0.78910000 -0.27400000
C        C    0.76760000  0.14340000  0.29070000  0.11000000
C        C    0.26760000  0.64340000  0.29070000  0.11000000
C        C    0.26760000  0.14340000  0.79069900  0.11000000
C        C    0.76760000  0.64340000  0.79069900  0.11000000
C        C    0.74950000  0.05189990  0.36040000  0.84800000
C        C    0.24950000  0.55190100  0.36040000  0.84800000
C        C    0.24950000  0.05189990  0.86040000  0.84800000
C        C    0.74950000  0.55190100  0.86040000  0.84800000
H        H    0.86789200  0.18199100  0.32056800  0.10000000
H        H    0.36789200  0.68199200  0.32056800  0.10000000
H        H    0.36789200  0.18199100  0.82056700  0.10000000
H        H    0.86789200  0.68199200  0.82056700  0.10000000
H        H    0.85095400  0.16667600  0.26693900  0.10000000
H        H    0.35095500  0.66667600  0.26693900  0.10000000
H        H    0.35095500  0.16667600  0.76693900  0.10000000
H        H    0.85095400  0.66667600  0.76693900  0.10000000
H        H    0.81196800  0.35382300  0.39551600  0.10000000
H        H    0.31196900  0.85382400  0.39551600  0.10000000
H        H    0.31196900  0.35382300  0.89551600  0.10000000
H        H    0.81196800  0.85382400  0.89551600  0.10000000
H        H    0.92780400  0.08223090  0.38671300  0.10000000
H        H    0.42780300  0.58223200  0.38671300  0.10000000
H        H    0.42780300  0.08223090  0.88671400  0.10000000
H        H    0.92780400  0.58223200  0.88671400  0.10000000
H        H    0.93962300  0.05481190  0.43998900  0.10000000
H        H    0.43962400  0.55481300  0.43998900  0.10000000
H        H    0.43962400  0.05481190  0.93999000  0.10000000
H        H    0.93962300  0.55481300  0.93999000  0.10000000
H        H    0.94422000  0.12388700  0.37473900  0.10000000
H        H    0.44422000  0.62388800  0.37473900  0.10000000
H        H    0.44422000  0.12388700  0.87474000  0.10000000
H        H    0.94422000  0.62388800  0.87474000  0.10000000
H        H    0.84073000  0.26217300  0.30591800  0.10000000
H        H    0.34072900  0.76217200  0.30591800  0.10000000
H        H    0.34072900  0.26217300  0.80591800  0.10000000
H        H    0.84073000  0.76217200  0.80591800  0.10000000
H        H    0.76007100  0.15084000  0.30085300  0.10000000
H        H    0.26007200  0.65083900  0.30085300  0.10000000
H        H    0.26007200  0.15084000  0.80085200  0.10000000
H        H    0.76007100  0.65083900  0.80085200  0.10000000
Cr       Cr   0.69519900  0.02260040  0.45339900  1.62000000
Cr       Cr   0.19520000  0.52260000  0.45339900  1.62000000
Cr       Cr   0.19520000  0.02260040  0.95340000  1.62000000
Cr       Cr   0.69519900  0.52260000  0.95340000  1.62000000
Cr       Cr   0.73640100  0.11970000  0.33999900  1.62000000
Cr       Cr   0.23640000  0.61970100  0.33999900  1.62000000
Cr       Cr   0.23640000  0.11970000  0.84000000  1.62000000
Cr       Cr   0.73640100  0.61970100  0.84000000  1.62000000
O        O    0.15429900  0.06710040  0.04370030 -0.73100000
O        O    0.65430000  0.56710000  0.04370030 -0.73100000
O        O    0.65430000  0.06710040  0.54370000 -0.73100000
O        O    0.15429900  0.56710000  0.54370000 -0.73100000
O        O    0.13470000  0.08559960  0.06500040 -0.73100000
O        O    0.63469900  0.58560000  0.06500040 -0.73100000
O        O    0.63469900  0.08559960  0.56500000 -0.73100000
O        O    0.13470000  0.58560000  0.56500000 -0.73100000
O        O    0.65169900  0.12650000  0.41150000 -0.58700000
O        O    0.15170000  0.62650000  0.41150000 -0.58700000
O        O    0.15170000  0.12650000  0.91149900 -0.58700000
O        O    0.65169900  0.62650000  0.91149900 -0.58700000
O        O    0.62160000  0.14990000  0.34870000 -0.73100000
O        O    0.12160000  0.64990000  0.34870000 -0.73100000
O        O    0.12160000  0.14990000  0.84870000 -0.73100000
O        O    0.62160000  0.64990000  0.84870000 -0.73100000
O        O    0.65960000  0.13460000  0.38390000 -0.73100000
O        O    0.15959900  0.63460100  0.38390000 -0.73100000
O        O    0.15959900  0.13460000  0.88389900 -0.73100000
O        O    0.65960000  0.63460100  0.88389900 -0.73100000
O        O    0.67360000  0.05090000  0.48230000 -0.73100000
O        O    0.17360000  0.55089900  0.48230000 -0.73100000
O        O    0.17360000  0.05090000  0.98230000 -0.73100000
O        O    0.67360000  0.55089900  0.98230000 -0.73100000
O        O    0.68860000  0.08910000  0.44809900 -0.73100000
O        O    0.18860000  0.58909900  0.44809900 -0.73100000
O        O    0.18860000  0.08910000  0.94810000 -0.73100000
O        O    0.68860000  0.58909900  0.94810000 -0.73100000
O        O    0.67760000  0.02199970  0.47340100 -0.58700000
O        O    0.17760100  0.52200000  0.47340100 -0.58700000
O        O    0.17760100  0.02199970  0.97340000 -0.58700000
O        O    0.67760000  0.52200000  0.97340000 -0.58700000
O        O    0.27770000  0.03420030  0.01210060 -0.73100000
O        O    0.77770100  0.53420000  0.01210060 -0.73100000
O        O    0.77770100  0.03420030  0.51210000 -0.73100000
O        O    0.27770000  0.53420000  0.51210000 -0.73100000
O        O    0.70380000  0.02470040  0.43020000 -0.58700000
O        O    0.20380000  0.52470000  0.43020000 -0.58700000
O        O    0.20380000  0.02470040  0.93020000 -0.58700000
O        O    0.70380000  0.52470000  0.93020000 -0.58700000
O        O    0.71529900  0.07609970  0.44050100 -0.73100000
O        O    0.21530000  0.57610000  0.44050100 -0.73100000
O        O    0.21530000  0.07609970  0.94050000 -0.73100000
O        O    0.71529900  0.57610000  0.94050000 -0.73100000
O        O    0.75130100  0.09160050  0.30330000 -0.73100000
O        O    0.25130000  0.59160000  0.30330000 -0.73100000
O        O    0.25130000  0.09160050  0.80330100 -0.73100000
O        O    0.75130100  0.59160000  0.80330100 -0.73100000
O        O    0.58020000  0.22260000  0.32030000 -0.58700000
O        O    0.08019950  0.72260100  0.32030000 -0.58700000
O        O    0.08019950  0.22260000  0.82029900 -0.58700000
O        O    0.58020000  0.72260100  0.82029900 -0.58700000
O        O    0.74010000  0.11880000  0.31339900 -0.58700000
O        O    0.24010100  0.61879900  0.31339900 -0.58700000
O        O    0.24010100  0.11880000  0.81340000 -0.58700000
O        O    0.74010000  0.61879900  0.81340000 -0.58700000
O        O    0.60929900  0.21180000  0.32920100 -0.73100000
O        O    0.10930000  0.71180000  0.32920100 -0.73100000
O        O    0.10930000  0.21180000  0.82920000 -0.73100000
O        O    0.60929900  0.71180000  0.82920000 -0.73100000
O        O    0.72500000  0.11840000  0.36340000 -0.58700000
O        O    0.22500000  0.61840000  0.36340000 -0.58700000
O        O    0.22500000  0.11840000  0.86340000 -0.58700000
O        O    0.72500000  0.61840000  0.86340000 -0.58700000
O        O    0.74320000  0.10150000  0.38160000 -0.73100000
O        O    0.24320000  0.60150000  0.38160000 -0.73100000
O        O    0.24320000  0.10150000  0.88160000 -0.73100000
O        O    0.74320000  0.60150000  0.88160000 -0.73100000
F        F    0.18480000  0.49860000  0.44830000 -0.56600000
F        F    0.68480000  0.99860000  0.44830000 -0.56600000
F        F    0.68480000  0.49860000  0.94830000 -0.56600000
F        F    0.18480000  0.99860000  0.94830000 -0.56600000
F        F    0.72570000  0.14250100  0.33450100 -0.56600000
F        F    0.22570000  0.64250000  0.33450100 -0.56600000
F        F    0.22570000  0.14250100  0.83450000 -0.56600000
F        F    0.72570000  0.64250000  0.83450000 -0.56600000
C        C    0.59890000  0.17500000  0.33170000  0.11000000
C        C    0.09890040  0.67499900  0.33170000  0.11000000
C        C    0.09890040  0.17500000  0.83170000  0.11000000
C        C    0.59890000  0.67499900  0.83170000  0.11000000
C        C    0.58560000  0.18840000  0.32089900 -0.27400000
C        C    0.08559960  0.68840000  0.32089900 -0.27400000
C        C    0.08559960  0.18840000  0.82090000 -0.27400000
C        C    0.58560000  0.68840000  0.82090000 -0.27400000
C        C    0.59229900  0.20849900  0.32210000  0.84800000
C        C    0.09230010  0.70850000  0.32210000  0.84800000
C        C    0.09230010  0.20849900  0.82210000  0.84800000
C        C    0.59229900  0.70850000  0.82210000  0.84800000
C        C    0.16000000  0.04080070  0.01610030  0.11000000
C        C    0.66000100  0.54080000  0.01610030  0.11000000
C        C    0.66000100  0.04080070  0.51610000  0.11000000
C        C    0.16000000  0.54080000  0.51610000  0.11000000
C        C    0.16340000  0.02749990  0.00260062 -0.27400000
C        C    0.66339900  0.52750100  0.00260062 -0.27400000
C        C    0.66339900  0.02749990  0.50260000 -0.27400000
C        C    0.16340000  0.52750100  0.50260000 -0.27400000
C        C    0.67240000  0.03379980  0.48629900  0.84800000
C        C    0.17239900  0.53380100  0.48629900  0.84800000
C        C    0.17239900  0.03379980  0.98630000  0.84800000
C        C    0.67240000  0.53380100  0.98630000  0.84800000
C        C    0.70310000  0.10190000  0.42259900 -0.27400000
C        C    0.20309900  0.60189900  0.42259900 -0.27400000
C        C    0.20309900  0.10190000  0.92260000 -0.27400000
C        C    0.70310000  0.60189900  0.92260000 -0.27400000
C        C    0.71890000  0.10510000  0.41150000  0.11000000
C        C    0.21890100  0.60509900  0.41150000  0.11000000
C        C    0.21890100  0.10510000  0.91149900  0.11000000
C        C    0.71890000  0.60509900  0.91149900  0.11000000
C        C    0.71560000  0.11390100  0.39340000 -0.27400000
C        C    0.21560000  0.61390000  0.39340000 -0.27400000
C        C    0.21560000  0.11390100  0.89340100 -0.27400000
C        C    0.71560000  0.61390000  0.89340100 -0.27400000
C        C    0.69710100  0.12020000  0.38840000  0.11000000
C        C    0.19710000  0.62020000  0.38840000  0.11000000
C        C    0.19710000  0.12020000  0.88840000  0.11000000
C        C    0.69710100  0.62020000  0.88840000  0.11000000
C        C    0.68249900  0.11990000  0.40220000 -0.27400000
C        C    0.18250000  0.61989900  0.40220000 -0.27400000
C        C    0.18250000  0.11990000  0.90220000 -0.27400000
C        C    0.68249900  0.61989900  0.90220000 -0.27400000
C        C    0.68730000  0.11380000  0.42030000  0.11000000
C        C    0.18729900  0.61380000  0.42030000  0.11000000
C        C    0.18729900  0.11380000  0.92030000  0.11000000
C        C    0.68730000  0.61380000  0.92030000  0.11000000
C        C    0.66370000  0.12700000  0.39870000  0.84800000
C        C    0.16370100  0.62700000  0.39870000  0.84800000
C        C    0.16370100  0.12700000  0.89870100  0.84800000
C        C    0.66370000  0.62700000  0.89870100  0.84800000
C        C    0.72830000  0.11080100  0.37850000  0.84800000
C        C    0.22830000  0.61080000  0.37850000  0.84800000
C        C    0.22830000  0.11080100  0.87850100  0.84800000
C        C    0.72830000  0.61080000  0.87850100  0.84800000
C        C    0.70240000  0.08859940  0.43730100  0.84800000
C        C    0.20240000  0.58860000  0.43730100  0.84800000
C        C    0.20240000  0.08859940  0.93730000  0.84800000
C        C    0.70240000  0.58860000  0.93730000  0.84800000
C        C    0.73470000  0.03909980  0.37120000 -0.27400000
C        C    0.23470000  0.53910100  0.37120000 -0.27400000
C        C    0.23470000  0.03909980  0.87119900 -0.27400000
C        C    0.73470000  0.53910100  0.87119900 -0.27400000
C        C    0.73240000  0.04070050  0.39340000  0.11000000
C        C    0.23240000  0.54070000  0.39340000  0.11000000
C        C    0.23240000  0.04070050  0.89340100  0.11000000
C        C    0.73240000  0.54070000  0.89340100  0.11000000
C        C    0.75050000  0.11040000  0.30190000  0.84800000
C        C    0.25050000  0.61039900  0.30190000  0.84800000
C        C    0.25050000  0.11040000  0.80190000  0.84800000
C        C    0.75050000  0.61039900  0.80190000  0.84800000
H        H    0.63210800  0.07056650  0.43199100  0.10000000
H        H    0.13210800  0.57056700  0.43199100  0.10000000
H        H    0.13210800  0.07056650  0.93199200  0.10000000
H        H    0.63210800  0.57056700  0.93199200  0.10000000
H        H    0.64904500  0.01693970  0.41667500  0.10000000
H        H    0.14904600  0.51693900  0.41667500  0.10000000
H        H    0.14904600  0.01693970  0.91667600  0.10000000
H        H    0.64904500  0.51693900  0.91667600  0.10000000
H        H    0.57219700  0.13671400  0.33223200  0.10000000
H        H    0.07219600  0.63671400  0.33223200  0.10000000
H        H    0.07219600  0.13671400  0.83223100  0.10000000
H        H    0.57219700  0.63671400  0.83223100  0.10000000
H        H    0.56037600  0.18998900  0.30481300  0.10000000
H        H    0.06037660  0.68998900  0.30481300  0.10000000
H        H    0.06037660  0.18998900  0.80481200  0.10000000
H        H    0.56037600  0.68998900  0.80481200  0.10000000
H        H    0.55578000  0.12473900  0.37388800  0.10000000
H        H    0.05578030  0.62474000  0.37388800  0.10000000
H        H    0.05578030  0.12473900  0.87388800  0.10000000
H        H    0.55578000  0.62474000  0.87388800  0.10000000
H        H    0.15927000  0.05591740  0.01217330  0.10000000
H        H    0.65927100  0.55591800  0.01217330  0.10000000
H        H    0.65927100  0.05591740  0.51217300  0.10000000
H        H    0.15927000  0.55591800  0.51217300  0.10000000
H        H    0.73992800  0.05085200  0.40084000  0.10000000
H        H    0.23992900  0.55085300  0.40084000  0.10000000
H        H    0.23992900  0.05085200  0.90083900  0.10000000
H        H    0.73992800  0.55085300  0.90083900  0.10000000
Cr       Cr   0.55480000  0.22740100  0.45339900  1.85900000
Cr       Cr   0.05479960  0.72740000  0.45339900  1.85900000
Cr       Cr   0.05479960  0.22740100  0.95340000  1.85900000
Cr       Cr   0.55480000  0.72740000  0.95340000  1.85900000
Cr       Cr   0.51360000  0.13030000  0.33999900  1.85900000
Cr       Cr   0.01359980  0.63030100  0.33999900  1.85900000
Cr       Cr   0.01359980  0.13030000  0.84000000  1.85900000
Cr       Cr   0.51360000  0.63030100  0.84000000  1.85900000
O        O    0.09570030  0.18290100  0.04370030 -0.73100000
O        O    0.59570000  0.68290000  0.04370030 -0.73100000
O        O    0.59570000  0.18290100  0.54370000 -0.73100000
O        O    0.09570030  0.68290000  0.54370000 -0.73100000
O        O    0.11530000  0.16440000  0.06500040 -0.73100000
O        O    0.61530000  0.66439900  0.06500040 -0.73100000
O        O    0.61530000  0.16440000  0.56500000 -0.73100000
O        O    0.11530000  0.66439900  0.56500000 -0.73100000
O        O    0.59830000  0.12350100  0.41150000 -0.58700000
O        O    0.09829960  0.62350000  0.41150000 -0.58700000
O        O    0.09829960  0.12350100  0.91149900 -0.58700000
O        O    0.59830000  0.62350000  0.91149900 -0.58700000
O        O    0.62839900  0.10010100  0.34870000 -0.58700000
O        O    0.12840000  0.60010000  0.34870000 -0.58700000
O        O    0.12840000  0.10010100  0.84870000 -0.58700000
O        O    0.62839900  0.60010000  0.84870000 -0.58700000
O        O    0.59040000  0.11540000  0.38390000 -0.58700000
O        O    0.09040030  0.61540000  0.38390000 -0.58700000
O        O    0.09040030  0.11540000  0.88389900 -0.58700000
O        O    0.59040000  0.61540000  0.88389900 -0.58700000
O        O    0.57639900  0.19910000  0.48230000 -0.58700000
O        O    0.07640010  0.69910000  0.48230000 -0.58700000
O        O    0.07640010  0.19910000  0.98230000 -0.58700000
O        O    0.57639900  0.69910000  0.98230000 -0.58700000
O        O    0.56140100  0.16090000  0.44809900 -0.58700000
O        O    0.06139990  0.66090000  0.44809900 -0.58700000
O        O    0.06139990  0.16090000  0.94810000 -0.58700000
O        O    0.56140100  0.66090000  0.94810000 -0.58700000
O        O    0.57240000  0.22800000  0.47340100 -0.73100000
O        O    0.07240040  0.72800100  0.47340100 -0.73100000
O        O    0.07240040  0.22800000  0.97340000 -0.73100000
O        O    0.57240000  0.72800100  0.97340000 -0.73100000
O        O    0.97230000  0.21579900  0.01210060 -0.73100000
O        O    0.47230100  0.71580000  0.01210060 -0.73100000
O        O    0.47230100  0.21579900  0.51210000 -0.73100000
O        O    0.97230000  0.71580000  0.51210000 -0.73100000
O        O    0.54620000  0.22530100  0.43020000 -0.73100000
O        O    0.04619940  0.72530000  0.43020000 -0.73100000
O        O    0.04619940  0.22530100  0.93020000 -0.73100000
O        O    0.54620000  0.72530000  0.93020000 -0.73100000
O        O    0.53470000  0.17390000  0.44050100 -0.73100000
O        O    0.03469960  0.67390100  0.44050100 -0.73100000
O        O    0.03469960  0.17390000  0.94050000 -0.73100000
O        O    0.53470000  0.67390100  0.94050000 -0.73100000
O        O    0.49870000  0.15840100  0.30330000 -0.73100000
O        O    0.99870000  0.65840000  0.30330000 -0.73100000
O        O    0.99870000  0.15840100  0.80330100 -0.73100000
O        O    0.49870000  0.65840000  0.80330100 -0.73100000
O        O    0.66979900  0.02739980  0.32030000 -0.58700000
O        O    0.16980000  0.52740000  0.32030000 -0.58700000
O        O    0.16980000  0.02739980  0.82029900 -0.58700000
O        O    0.66979900  0.52740000  0.82029900 -0.58700000
O        O    0.50990000  0.13120000  0.31339900 -0.73100000
O        O    0.00990046  0.63120000  0.31339900 -0.73100000
O        O    0.00990046  0.13120000  0.81340000 -0.73100000
O        O    0.50990000  0.63120000  0.81340000 -0.73100000
O        O    0.64070000  0.03820000  0.32920100 -0.73100000
O        O    0.14070000  0.53819900  0.32920100 -0.73100000
O        O    0.14070000  0.03820000  0.82920000 -0.73100000
O        O    0.64070000  0.53819900  0.82920000 -0.73100000
O        O    0.52500000  0.13160000  0.36340000 -0.73100000
O        O    0.02499940  0.63159900  0.36340000 -0.73100000
O        O    0.02499940  0.13160000  0.86340000 -0.73100000
O        O    0.52500000  0.63159900  0.86340000 -0.73100000
O        O    0.50680000  0.14850000  0.38160000 -0.58700000
O        O    0.00680057  0.64849900  0.38160000 -0.58700000
O        O    0.00680057  0.14850000  0.88160000 -0.58700000
O        O    0.50680000  0.64849900  0.88160000 -0.58700000
C        C    0.65110000  0.07499960  0.33170000  0.11000000
C        C    0.15110100  0.57500000  0.33170000  0.11000000
C        C    0.15110100  0.07499960  0.83170000  0.11000000
C        C    0.65110000  0.57500000  0.83170000  0.11000000
C        C    0.66439900  0.06160010  0.32089900 -0.27400000
C        C    0.16440000  0.56159900  0.32089900 -0.27400000
C        C    0.16440000  0.06160010  0.82090000 -0.27400000
C        C    0.66439900  0.56159900  0.82090000 -0.27400000
C        C    0.65770000  0.04150020  0.32210000  0.84800000
C        C    0.15770000  0.54149900  0.32210000  0.84800000
C        C    0.15770000  0.04150020  0.82210000  0.84800000
C        C    0.65770000  0.54149900  0.82210000  0.84800000
C        C    0.08999980  0.20920000  0.01610030  0.11000000
C        C    0.59000100  0.70920000  0.01610030  0.11000000
C        C    0.59000100  0.20920000  0.51610000  0.11000000
C        C    0.08999980  0.70920000  0.51610000  0.11000000
C        C    0.08659950  0.22250000  0.00260062 -0.27400000
C        C    0.58660000  0.72250000  0.00260062 -0.27400000
C        C    0.58660000  0.22250000  0.50260000 -0.27400000
C        C    0.08659950  0.72250000  0.50260000 -0.27400000
C        C    0.57760000  0.21620000  0.48629900  0.84800000
C        C    0.07760020  0.71620100  0.48629900  0.84800000
C        C    0.07760020  0.21620000  0.98630000  0.84800000
C        C    0.57760000  0.71620100  0.98630000  0.84800000
C        C    0.54690000  0.14810000  0.42259900 -0.27400000
C        C    0.04690030  0.64810000  0.42259900 -0.27400000
C        C    0.04690030  0.14810000  0.92260000 -0.27400000
C        C    0.54690000  0.64810000  0.92260000 -0.27400000
C        C    0.53110000  0.14490000  0.41150000  0.11000000
C        C    0.03110040  0.64490000  0.41150000  0.11000000
C        C    0.03110040  0.14490000  0.91149900  0.11000000
C        C    0.53110000  0.64490000  0.91149900  0.11000000
C        C    0.53440000  0.13610000  0.39340000 -0.27400000
C        C    0.03440060  0.63610000  0.39340000 -0.27400000
C        C    0.03440060  0.13610000  0.89340100 -0.27400000
C        C    0.53440000  0.63610000  0.89340100 -0.27400000
C        C    0.55290100  0.12980100  0.38840000  0.11000000
C        C    0.05289980  0.62980000  0.38840000  0.11000000
C        C    0.05289980  0.12980100  0.88840000  0.11000000
C        C    0.55290100  0.62980000  0.88840000  0.11000000
C        C    0.56750000  0.13010000  0.40220000 -0.27400000
C        C    0.06749950  0.63010000  0.40220000 -0.27400000
C        C    0.06749950  0.13010000  0.90220000 -0.27400000
C        C    0.56750000  0.63010000  0.90220000 -0.27400000
C        C    0.56269900  0.13620100  0.42030000  0.11000000
C        C    0.06270020  0.63620000  0.42030000  0.11000000
C        C    0.06270020  0.13620100  0.92030000  0.11000000
C        C    0.56269900  0.63620000  0.92030000  0.11000000
C        C    0.58630000  0.12300000  0.39870000  0.84800000
C        C    0.08630050  0.62299900  0.39870000  0.84800000
C        C    0.08630050  0.12300000  0.89870100  0.84800000
C        C    0.58630000  0.62299900  0.89870100  0.84800000
C        C    0.52170000  0.13920000  0.37850000  0.84800000
C        C    0.02170060  0.63920000  0.37850000  0.84800000
C        C    0.02170060  0.13920000  0.87850100  0.84800000
C        C    0.52170000  0.63920000  0.87850100  0.84800000
C        C    0.54760100  0.16140000  0.43730100  0.84800000
C        C    0.04759980  0.66140000  0.43730100  0.84800000
C        C    0.04759980  0.16140000  0.93730000  0.84800000
C        C    0.54760100  0.66140000  0.93730000  0.84800000
C        C    0.51530000  0.21090000  0.37120000 -0.27400000
C        C    0.01530060  0.71090100  0.37120000 -0.27400000
C        C    0.01530060  0.21090000  0.87119900 -0.27400000
C        C    0.51530000  0.71090100  0.87119900 -0.27400000
C        C    0.51760000  0.20930100  0.39340000  0.11000000
C        C    0.01759940  0.70930000  0.39340000  0.11000000
C        C    0.01759940  0.20930100  0.89340100  0.11000000
C        C    0.51760000  0.70930000  0.89340100  0.11000000
C        C    0.49950000  0.13960000  0.30190000  0.84800000
C        C    0.99949900  0.63960000  0.30190000  0.84800000
C        C    0.99949900  0.13960000  0.80190000  0.84800000
C        C    0.49950000  0.63960000  0.80190000  0.84800000
H        H    0.61789300  0.17943300  0.43199100  0.10000000
H        H    0.11789200  0.67943200  0.43199100  0.10000000
H        H    0.11789200  0.17943300  0.93199200  0.10000000
H        H    0.61789300  0.67943200  0.93199200  0.10000000
H        H    0.60095400  0.23306100  0.41667500  0.10000000
H        H    0.10095500  0.73306100  0.41667500  0.10000000
H        H    0.10095500  0.23306100  0.91667600  0.10000000
H        H    0.60095400  0.73306100  0.91667600  0.10000000
H        H    0.06196770  0.10448400  0.10382300  0.10000000
H        H    0.56196800  0.60448400  0.10382300  0.10000000
H        H    0.56196800  0.10448400  0.60382400  0.10000000
H        H    0.06196770  0.60448400  0.60382400  0.10000000
H        H    0.67780400  0.11328600  0.33223200  0.10000000
H        H    0.17780400  0.61328700  0.33223200  0.10000000
H        H    0.17780400  0.11328600  0.83223100  0.10000000
H        H    0.67780400  0.61328700  0.83223100  0.10000000
H        H    0.68962400  0.06001040  0.30481300  0.10000000
H        H    0.18962300  0.56001100  0.30481300  0.10000000
H        H    0.18962300  0.06001040  0.80481200  0.10000000
H        H    0.68962400  0.56001100  0.80481200  0.10000000
H        H    0.69422000  0.12526000  0.37388800  0.10000000
H        H    0.19422100  0.62526100  0.37388800  0.10000000
H        H    0.19422100  0.12526000  0.87388800  0.10000000
H        H    0.69422000  0.62526100  0.87388800  0.10000000
H        H    0.09072950  0.19408200  0.01217330  0.10000000
H        H    0.59073000  0.69408200  0.01217330  0.10000000
H        H    0.59073000  0.19408200  0.51217300  0.10000000
H        H    0.09072950  0.69408200  0.51217300  0.10000000
H        H    0.51007100  0.19914800  0.40084000  0.10000000
H        H    0.01007190  0.69914700  0.40084000  0.10000000
H        H    0.01007190  0.19914800  0.90083900  0.10000000
H        H    0.51007100  0.69914700  0.90083900  0.10000000
Cr       Cr   0.19520000  0.22740100  0.29660000  1.62000000
Cr       Cr   0.69519900  0.72740000  0.29660000  1.62000000
Cr       Cr   0.69519900  0.22740100  0.79660000  1.62000000
Cr       Cr   0.19520000  0.72740000  0.79660000  1.62000000
Cr       Cr   0.23640000  0.13030000  0.40999900  1.85900000
Cr       Cr   0.73640100  0.63030100  0.40999900  1.85900000
Cr       Cr   0.73640100  0.13030000  0.91000000  1.85900000
Cr       Cr   0.23640000  0.63030100  0.91000000  1.85900000
O        O    0.15429900  0.18290100  0.20629900 -0.58700000
O        O    0.65430000  0.68290000  0.20629900 -0.58700000
O        O    0.65430000  0.18290100  0.70630000 -0.58700000
O        O    0.15429900  0.68290000  0.70630000 -0.58700000
O        O    0.13470000  0.16440000  0.18500100 -0.58700000
O        O    0.63469900  0.66439900  0.18500100 -0.58700000
O        O    0.63469900  0.16440000  0.68500000 -0.58700000
O        O    0.13470000  0.66439900  0.68500000 -0.58700000
O        O    0.15170000  0.12350100  0.33850000 -0.73100000
O        O    0.65169900  0.62350000  0.33850000 -0.73100000
O        O    0.65169900  0.12350100  0.83850000 -0.73100000
O        O    0.15170000  0.62350000  0.83850000 -0.73100000
O        O    0.12160000  0.10010100  0.40130100 -0.58700000
O        O    0.62160000  0.60010000  0.40130100 -0.58700000
O        O    0.62160000  0.10010100  0.90130000 -0.58700000
O        O    0.12160000  0.60010000  0.90130000 -0.58700000
O        O    0.15959900  0.11540000  0.36610000 -0.58700000
O        O    0.65960000  0.61540000  0.36610000 -0.58700000
O        O    0.65960000  0.11540000  0.86610000 -0.58700000
O        O    0.15959900  0.61540000  0.86610000 -0.58700000
O        O    0.17360000  0.19910000  0.26770100 -0.73100000
O        O    0.67360000  0.69910000  0.26770100 -0.73100000
O        O    0.67360000  0.19910000  0.76770000 -0.73100000
O        O    0.17360000  0.69910000  0.76770000 -0.73100000
O        O    0.18860000  0.16090000  0.30190000 -0.73100000
O        O    0.68860000  0.66090000  0.30190000 -0.73100000
O        O    0.68860000  0.16090000  0.80190000 -0.73100000
O        O    0.18860000  0.66090000  0.80190000 -0.73100000
O        O    0.17760100  0.22800000  0.27660000 -0.58700000
O        O    0.67760000  0.72800100  0.27660000 -0.58700000
O        O    0.67760000  0.22800000  0.77660000 -0.58700000
O        O    0.17760100  0.72800100  0.77660000 -0.58700000
O        O    0.27770000  0.21579900  0.23790000 -0.58700000
O        O    0.77770100  0.71580000  0.23790000 -0.58700000
O        O    0.77770100  0.21579900  0.73790000 -0.58700000
O        O    0.27770000  0.71580000  0.73790000 -0.58700000
O        O    0.20380000  0.22530100  0.31979900 -0.58700000
O        O    0.70380000  0.72530000  0.31979900 -0.58700000
O        O    0.70380000  0.22530100  0.81980000 -0.58700000
O        O    0.20380000  0.72530000  0.81980000 -0.58700000
O        O    0.21530000  0.17390000  0.30950000 -0.73100000
O        O    0.71529900  0.67390100  0.30950000 -0.73100000
O        O    0.71529900  0.17390000  0.80950000 -0.73100000
O        O    0.21530000  0.67390100  0.80950000 -0.73100000
O        O    0.25130000  0.15840100  0.44670000 -0.58700000
O        O    0.75130100  0.65840000  0.44670000 -0.58700000
O        O    0.75130100  0.15840100  0.94670000 -0.58700000
O        O    0.25130000  0.65840000  0.94670000 -0.58700000
O        O    0.08019950  0.02739980  0.42970000 -0.73100000
O        O    0.58020000  0.52740000  0.42970000 -0.73100000
O        O    0.58020000  0.02739980  0.92970000 -0.73100000
O        O    0.08019950  0.52740000  0.92970000 -0.73100000
O        O    0.24010100  0.13120000  0.43660000 -0.73100000
O        O    0.74010000  0.63120000  0.43660000 -0.73100000
O        O    0.74010000  0.13120000  0.93660000 -0.73100000
O        O    0.24010100  0.63120000  0.93660000 -0.73100000
O        O    0.10930000  0.03820000  0.42080000 -0.73100000
O        O    0.60929900  0.53819900  0.42080000 -0.73100000
O        O    0.60929900  0.03820000  0.92080000 -0.73100000
O        O    0.10930000  0.53819900  0.92080000 -0.73100000
O        O    0.22500000  0.13160000  0.38659900 -0.73100000
O        O    0.72500000  0.63159900  0.38659900 -0.73100000
O        O    0.72500000  0.13160000  0.88660000 -0.73100000
O        O    0.22500000  0.63159900  0.88660000 -0.73100000
O        O    0.24320000  0.14850000  0.36840100 -0.73100000
O        O    0.74320000  0.64849900  0.36840100 -0.73100000
O        O    0.74320000  0.14850000  0.86840000 -0.73100000
O        O    0.24320000  0.64849900  0.86840000 -0.73100000
F        F    0.18480000  0.25140000  0.30169900 -0.56600000
F        F    0.68480000  0.75139900  0.30169900 -0.56600000
F        F    0.68480000  0.25140000  0.80170000 -0.56600000
F        F    0.18480000  0.75139900  0.80170000 -0.56600000
C        C    0.09890040  0.07499960  0.41830100  0.11000000
C        C    0.59890000  0.57500000  0.41830100  0.11000000
C        C    0.59890000  0.07499960  0.91830000  0.11000000
C        C    0.09890040  0.57500000  0.91830000  0.11000000
C        C    0.08559960  0.06160010  0.42910000 -0.27400000
C        C    0.58560000  0.56159900  0.42910000 -0.27400000
C        C    0.58560000  0.06160010  0.92910000 -0.27400000
C        C    0.08559960  0.56159900  0.92910000 -0.27400000
C        C    0.09230010  0.04150020  0.42790100  0.84800000
C        C    0.59229900  0.54149900  0.42790100  0.84800000
C        C    0.59229900  0.04150020  0.92790000  0.84800000
C        C    0.09230010  0.54149900  0.92790000  0.84800000
C        C    0.16000000  0.20920000  0.23389900  0.11000000
C        C    0.66000100  0.70920000  0.23389900  0.11000000
C        C    0.66000100  0.20920000  0.73390000  0.11000000
C        C    0.16000000  0.70920000  0.73390000  0.11000000
C        C    0.16340000  0.22250000  0.24740000 -0.27400000
C        C    0.66339900  0.72250000  0.24740000 -0.27400000
C        C    0.66339900  0.22250000  0.74740000 -0.27400000
C        C    0.16340000  0.72250000  0.74740000 -0.27400000
C        C    0.17239900  0.21620000  0.26370000  0.84800000
C        C    0.67240000  0.71620100  0.26370000  0.84800000
C        C    0.67240000  0.21620000  0.76370000  0.84800000
C        C    0.17239900  0.71620100  0.76370000  0.84800000
C        C    0.20309900  0.14810000  0.32740000 -0.27400000
C        C    0.70310000  0.64810000  0.32740000 -0.27400000
C        C    0.70310000  0.14810000  0.82740000 -0.27400000
C        C    0.20309900  0.64810000  0.82740000 -0.27400000
C        C    0.21890100  0.14490000  0.33850000  0.11000000
C        C    0.71890000  0.64490000  0.33850000  0.11000000
C        C    0.71890000  0.14490000  0.83850000  0.11000000
C        C    0.21890100  0.64490000  0.83850000  0.11000000
C        C    0.21560000  0.13610000  0.35660000 -0.27400000
C        C    0.71560000  0.63610000  0.35660000 -0.27400000
C        C    0.71560000  0.13610000  0.85660000 -0.27400000
C        C    0.21560000  0.63610000  0.85660000 -0.27400000
C        C    0.19710000  0.12980100  0.36160000  0.11000000
C        C    0.69710100  0.62980000  0.36160000  0.11000000
C        C    0.69710100  0.12980100  0.86160100  0.11000000
C        C    0.19710000  0.62980000  0.86160100  0.11000000
C        C    0.18250000  0.13010000  0.34780000 -0.27400000
C        C    0.68249900  0.63010000  0.34780000 -0.27400000
C        C    0.68249900  0.13010000  0.84780100 -0.27400000
C        C    0.18250000  0.63010000  0.84780100 -0.27400000
C        C    0.18729900  0.13620100  0.32970000  0.11000000
C        C    0.68730000  0.63620000  0.32970000  0.11000000
C        C    0.68730000  0.13620100  0.82970100  0.11000000
C        C    0.18729900  0.63620000  0.82970100  0.11000000
C        C    0.16370100  0.12300000  0.35130000  0.84800000
C        C    0.66370000  0.62299900  0.35130000  0.84800000
C        C    0.66370000  0.12300000  0.85130000  0.84800000
C        C    0.16370100  0.62299900  0.85130000  0.84800000
C        C    0.22830000  0.13920000  0.37150000  0.84800000
C        C    0.72830000  0.63920000  0.37150000  0.84800000
C        C    0.72830000  0.13920000  0.87150000  0.84800000
C        C    0.22830000  0.63920000  0.87150000  0.84800000
C        C    0.20240000  0.16140000  0.31270000  0.84800000
C        C    0.70240000  0.66140000  0.31270000  0.84800000
C        C    0.70240000  0.16140000  0.81270100  0.84800000
C        C    0.20240000  0.66140000  0.81270100  0.84800000
C        C    0.23470000  0.21090000  0.37880000 -0.27400000
C        C    0.73470000  0.71090100  0.37880000 -0.27400000
C        C    0.73470000  0.21090000  0.87880000 -0.27400000
C        C    0.23470000  0.71090100  0.87880000 -0.27400000
C        C    0.23240000  0.20930100  0.35660000  0.11000000
C        C    0.73240000  0.70930000  0.35660000  0.11000000
C        C    0.73240000  0.20930100  0.85660000  0.11000000
C        C    0.23240000  0.70930000  0.85660000  0.11000000
C        C    0.25050000  0.13960000  0.44809900  0.84800000
C        C    0.75050000  0.63960000  0.44809900  0.84800000
C        C    0.75050000  0.13960000  0.94810000  0.84800000
C        C    0.25050000  0.63960000  0.94810000  0.84800000
H        H    0.13210800  0.17943300  0.31800800  0.10000000
H        H    0.63210800  0.67943200  0.31800800  0.10000000
H        H    0.63210800  0.17943300  0.81800900  0.10000000
H        H    0.13210800  0.67943200  0.81800900  0.10000000
H        H    0.14904600  0.23306100  0.33332400  0.10000000
H        H    0.64904500  0.73306100  0.33332400  0.10000000
H        H    0.64904500  0.23306100  0.83332400  0.10000000
H        H    0.14904600  0.73306100  0.83332400  0.10000000
H        H    0.18803200  0.10448400  0.14617600  0.10000000
H        H    0.68803100  0.60448400  0.14617600  0.10000000
H        H    0.68803100  0.10448400  0.64617700  0.10000000
H        H    0.18803200  0.60448400  0.64617700  0.10000000
H        H    0.07219600  0.11328600  0.41776800  0.10000000
H        H    0.57219700  0.61328700  0.41776800  0.10000000
H        H    0.57219700  0.11328600  0.91776900  0.10000000
H        H    0.07219600  0.61328700  0.91776900  0.10000000
H        H    0.06037660  0.06001040  0.44518700  0.10000000
H        H    0.56037600  0.56001100  0.44518700  0.10000000
H        H    0.56037600  0.06001040  0.94518800  0.10000000
H        H    0.06037660  0.56001100  0.94518800  0.10000000
H        H    0.05578030  0.12526000  0.37611200  0.10000000
H        H    0.55578000  0.62526100  0.37611200  0.10000000
H        H    0.55578000  0.12526000  0.87611300  0.10000000
H        H    0.05578030  0.62526100  0.87611300  0.10000000
H        H    0.15927000  0.19408200  0.23782800  0.10000000
H        H    0.65927100  0.69408200  0.23782800  0.10000000
H        H    0.65927100  0.19408200  0.73782700  0.10000000
H        H    0.15927000  0.69408200  0.73782700  0.10000000
H        H    0.23992900  0.19914800  0.34916100  0.10000000
H        H    0.73992800  0.69914700  0.34916100  0.10000000
H        H    0.73992800  0.19914800  0.84916000  0.10000000
H        H    0.23992900  0.69914700  0.84916000  0.10000000
Cr       Cr   0.05479960  0.02260040  0.29660000  1.85900000
Cr       Cr   0.55480000  0.52260000  0.29660000  1.85900000
Cr       Cr   0.55480000  0.02260040  0.79660000  1.85900000
Cr       Cr   0.05479960  0.52260000  0.79660000  1.85900000
Cr       Cr   0.01359980  0.11970000  0.40999900  1.85900000
Cr       Cr   0.51360000  0.61970100  0.40999900  1.85900000
Cr       Cr   0.51360000  0.11970000  0.91000000  1.85900000
Cr       Cr   0.01359980  0.61970100  0.91000000  1.85900000
O        O    0.09570030  0.06710040  0.20629900 -0.73100000
O        O    0.59570000  0.56710000  0.20629900 -0.73100000
O        O    0.59570000  0.06710040  0.70630000 -0.73100000
O        O    0.09570030  0.56710000  0.70630000 -0.73100000
O        O    0.11530000  0.08559960  0.18500100 -0.73100000
O        O    0.61530000  0.58560000  0.18500100 -0.73100000
O        O    0.61530000  0.08559960  0.68500000 -0.73100000
O        O    0.11530000  0.58560000  0.68500000 -0.73100000
O        O    0.09829960  0.12650000  0.33850000 -0.73100000
O        O    0.59830000  0.62650000  0.33850000 -0.73100000
O        O    0.59830000  0.12650000  0.83850000 -0.73100000
O        O    0.09829960  0.62650000  0.83850000 -0.73100000
O        O    0.12840000  0.14990000  0.40130100 -0.73100000
O        O    0.62839900  0.64990000  0.40130100 -0.73100000
O        O    0.62839900  0.14990000  0.90130000 -0.73100000
O        O    0.12840000  0.64990000  0.90130000 -0.73100000
O        O    0.09040030  0.13460000  0.36610000 -0.73100000
O        O    0.59040000  0.63460100  0.36610000 -0.73100000
O        O    0.59040000  0.13460000  0.86610000 -0.73100000
O        O    0.09040030  0.63460100  0.86610000 -0.73100000
O        O    0.07640010  0.05090000  0.26770100 -0.58700000
O        O    0.57639900  0.55089900  0.26770100 -0.58700000
O        O    0.57639900  0.05090000  0.76770000 -0.58700000
O        O    0.07640010  0.55089900  0.76770000 -0.58700000
O        O    0.06139990  0.08910000  0.30190000 -0.58700000
O        O    0.56140100  0.58909900  0.30190000 -0.58700000
O        O    0.56140100  0.08910000  0.80190000 -0.58700000
O        O    0.06139990  0.58909900  0.80190000 -0.58700000
O        O    0.07240040  0.02199970  0.27660000 -0.73100000
O        O    0.57240000  0.52200000  0.27660000 -0.73100000
O        O    0.57240000  0.02199970  0.77660000 -0.73100000
O        O    0.07240040  0.52200000  0.77660000 -0.73100000
O        O    0.97230000  0.03420030  0.23790000 -0.73100000
O        O    0.47230100  0.53420000  0.23790000 -0.73100000
O        O    0.47230100  0.03420030  0.73790000 -0.73100000
O        O    0.97230000  0.53420000  0.73790000 -0.73100000
O        O    0.04619940  0.02470040  0.31979900 -0.73100000
O        O    0.54620000  0.52470000  0.31979900 -0.73100000
O        O    0.54620000  0.02470040  0.81980000 -0.73100000
O        O    0.04619940  0.52470000  0.81980000 -0.73100000
O        O    0.03469960  0.07609970  0.30950000 -0.73100000
O        O    0.53470000  0.57610000  0.30950000 -0.73100000
O        O    0.53470000  0.07609970  0.80950000 -0.73100000
O        O    0.03469960  0.57610000  0.80950000 -0.73100000
O        O    0.99870000  0.09160050  0.44670000 -0.58700000
O        O    0.49870000  0.59160000  0.44670000 -0.58700000
O        O    0.49870000  0.09160050  0.94670000 -0.58700000
O        O    0.99870000  0.59160000  0.94670000 -0.58700000
O        O    0.16980000  0.22260000  0.42970000 -0.73100000
O        O    0.66979900  0.72260100  0.42970000 -0.73100000
O        O    0.66979900  0.22260000  0.92970000 -0.73100000
O        O    0.16980000  0.72260100  0.92970000 -0.73100000
O        O    0.00990046  0.11880000  0.43660000 -0.73100000
O        O    0.50990000  0.61879900  0.43660000 -0.73100000
O        O    0.50990000  0.11880000  0.93660000 -0.73100000
O        O    0.00990046  0.61879900  0.93660000 -0.73100000
O        O    0.14070000  0.21180000  0.42080000 -0.73100000
O        O    0.64070000  0.71180000  0.42080000 -0.73100000
O        O    0.64070000  0.21180000  0.92080000 -0.73100000
O        O    0.14070000  0.71180000  0.92080000 -0.73100000
O        O    0.02499940  0.11840000  0.38659900 -0.73100000
O        O    0.52500000  0.61840000  0.38659900 -0.73100000
O        O    0.52500000  0.11840000  0.88660000 -0.73100000
O        O    0.02499940  0.61840000  0.88660000 -0.73100000
O        O    0.00680057  0.10150000  0.36840100 -0.73100000
O        O    0.50680000  0.60150000  0.36840100 -0.73100000
O        O    0.50680000  0.10150000  0.86840000 -0.73100000
O        O    0.00680057  0.60150000  0.86840000 -0.73100000
C        C    0.15110100  0.17500000  0.41830100  0.11000000
C        C    0.65110000  0.67499900  0.41830100  0.11000000
C        C    0.65110000  0.17500000  0.91830000  0.11000000
C        C    0.15110100  0.67499900  0.91830000  0.11000000
C        C    0.16440000  0.18840000  0.42910000 -0.27400000
C        C    0.66439900  0.68840000  0.42910000 -0.27400000
C        C    0.66439900  0.18840000  0.92910000 -0.27400000
C        C    0.16440000  0.68840000  0.92910000 -0.27400000
C        C    0.15770000  0.20849900  0.42790100  0.84800000
C        C    0.65770000  0.70850000  0.42790100  0.84800000
C        C    0.65770000  0.20849900  0.92790000  0.84800000
C        C    0.15770000  0.70850000  0.92790000  0.84800000
C        C    0.08999980  0.04080070  0.23389900  0.11000000
C        C    0.59000100  0.54080000  0.23389900  0.11000000
C        C    0.59000100  0.04080070  0.73390000  0.11000000
C        C    0.08999980  0.54080000  0.73390000  0.11000000
C        C    0.08659950  0.02749990  0.24740000 -0.27400000
C        C    0.58660000  0.52750100  0.24740000 -0.27400000
C        C    0.58660000  0.02749990  0.74740000 -0.27400000
C        C    0.08659950  0.52750100  0.74740000 -0.27400000
C        C    0.07760020  0.03379980  0.26370000  0.84800000
C        C    0.57760000  0.53380100  0.26370000  0.84800000
C        C    0.57760000  0.03379980  0.76370000  0.84800000
C        C    0.07760020  0.53380100  0.76370000  0.84800000
C        C    0.04690030  0.10190000  0.32740000 -0.27400000
C        C    0.54690000  0.60189900  0.32740000 -0.27400000
C        C    0.54690000  0.10190000  0.82740000 -0.27400000
C        C    0.04690030  0.60189900  0.82740000 -0.27400000
C        C    0.03110040  0.10510000  0.33850000  0.11000000
C        C    0.53110000  0.60509900  0.33850000  0.11000000
C        C    0.53110000  0.10510000  0.83850000  0.11000000
C        C    0.03110040  0.60509900  0.83850000  0.11000000
C        C    0.03440060  0.11390100  0.35660000 -0.27400000
C        C    0.53440000  0.61390000  0.35660000 -0.27400000
C        C    0.53440000  0.11390100  0.85660000 -0.27400000
C        C    0.03440060  0.61390000  0.85660000 -0.27400000
C        C    0.05289980  0.12020000  0.36160000  0.11000000
C        C    0.55290100  0.62020000  0.36160000  0.11000000
C        C    0.55290100  0.12020000  0.86160100  0.11000000
C        C    0.05289980  0.62020000  0.86160100  0.11000000
C        C    0.06749950  0.11990000  0.34780000 -0.27400000
C        C    0.56750000  0.61989900  0.34780000 -0.27400000
C        C    0.56750000  0.11990000  0.84780100 -0.27400000
C        C    0.06749950  0.61989900  0.84780100 -0.27400000
C        C    0.06270020  0.11380000  0.32970000  0.11000000
C        C    0.56269900  0.61380000  0.32970000  0.11000000
C        C    0.56269900  0.11380000  0.82970100  0.11000000
C        C    0.06270020  0.61380000  0.82970100  0.11000000
C        C    0.08630050  0.12700000  0.35130000  0.84800000
C        C    0.58630000  0.62700000  0.35130000  0.84800000
C        C    0.58630000  0.12700000  0.85130000  0.84800000
C        C    0.08630050  0.62700000  0.85130000  0.84800000
C        C    0.02170060  0.11080100  0.37150000  0.84800000
C        C    0.52170000  0.61080000  0.37150000  0.84800000
C        C    0.52170000  0.11080100  0.87150000  0.84800000
C        C    0.02170060  0.61080000  0.87150000  0.84800000
C        C    0.04759980  0.08859940  0.31270000  0.84800000
C        C    0.54760100  0.58860000  0.31270000  0.84800000
C        C    0.54760100  0.08859940  0.81270100  0.84800000
C        C    0.04759980  0.58860000  0.81270100  0.84800000
C        C    0.01530060  0.03909980  0.37880000 -0.27400000
C        C    0.51530000  0.53910100  0.37880000 -0.27400000
C        C    0.51530000  0.03909980  0.87880000 -0.27400000
C        C    0.01530060  0.53910100  0.87880000 -0.27400000
C        C    0.01759940  0.04070050  0.35660000  0.11000000
C        C    0.51760000  0.54070000  0.35660000  0.11000000
C        C    0.51760000  0.04070050  0.85660000  0.11000000
C        C    0.01759940  0.54070000  0.85660000  0.11000000
C        C    0.99949900  0.11040000  0.44809900  0.84800000
C        C    0.49950000  0.61039900  0.44809900  0.84800000
C        C    0.49950000  0.11040000  0.94810000  0.84800000
C        C    0.99949900  0.61039900  0.94810000  0.84800000
H        H    0.11789200  0.07056650  0.31800800  0.10000000
H        H    0.61789300  0.57056700  0.31800800  0.10000000
H        H    0.61789300  0.07056650  0.81800900  0.10000000
H        H    0.11789200  0.57056700  0.81800900  0.10000000
H        H    0.10095500  0.01693970  0.33332400  0.10000000
H        H    0.60095400  0.51693900  0.33332400  0.10000000
H        H    0.60095400  0.01693970  0.83332400  0.10000000
H        H    0.10095500  0.51693900  0.83332400  0.10000000
H        H    0.17780400  0.13671400  0.41776800  0.10000000
H        H    0.67780400  0.63671400  0.41776800  0.10000000
H        H    0.67780400  0.13671400  0.91776900  0.10000000
H        H    0.17780400  0.63671400  0.91776900  0.10000000
H        H    0.19422100  0.12473900  0.37611200  0.10000000
H        H    0.69422000  0.62474000  0.37611200  0.10000000
H        H    0.69422000  0.12473900  0.87611300  0.10000000
H        H    0.19422100  0.62474000  0.87611300  0.10000000
H        H    0.09072950  0.05591740  0.23782800  0.10000000
H        H    0.59073000  0.55591800  0.23782800  0.10000000
H        H    0.59073000  0.05591740  0.73782700  0.10000000
H        H    0.09072950  0.55591800  0.73782700  0.10000000
H        H    0.01007190  0.05085200  0.34916100  0.10000000
H        H    0.51007100  0.55085300  0.34916100  0.10000000
H        H    0.51007100  0.05085200  0.84916000  0.10000000
H        H    0.01007190  0.55085300  0.84916000  0.10000000
Cr       Cr   0.02260040  0.29660000  0.05479960  1.85900000
Cr       Cr   0.52260000  0.79660000  0.05479960  1.85900000
Cr       Cr   0.52260000  0.29660000  0.55480000  1.85900000
Cr       Cr   0.02260040  0.79660000  0.55480000  1.85900000
Cr       Cr   0.11970000  0.40999900  0.01359980  1.85900000
Cr       Cr   0.61970100  0.91000000  0.01359980  1.85900000
Cr       Cr   0.61970100  0.40999900  0.51360000  1.85900000
Cr       Cr   0.11970000  0.91000000  0.51360000  1.85900000
O        O    0.06710040  0.20629900  0.09570030 -0.58700000
O        O    0.56710000  0.70630000  0.09570030 -0.58700000
O        O    0.56710000  0.20629900  0.59570000 -0.58700000
O        O    0.06710040  0.70630000  0.59570000 -0.58700000
O        O    0.08559960  0.18500100  0.11530000 -0.58700000
O        O    0.58560000  0.68500000  0.11530000 -0.58700000
O        O    0.58560000  0.18500100  0.61530000 -0.58700000
O        O    0.08559960  0.68500000  0.61530000 -0.58700000
O        O    0.12650000  0.33850000  0.09829960 -0.73100000
O        O    0.62650000  0.83850000  0.09829960 -0.73100000
O        O    0.62650000  0.33850000  0.59830000 -0.73100000
O        O    0.12650000  0.83850000  0.59830000 -0.73100000
O        O    0.14990000  0.40130100  0.12840000 -0.73100000
O        O    0.64990000  0.90130000  0.12840000 -0.73100000
O        O    0.64990000  0.40130100  0.62839900 -0.73100000
O        O    0.14990000  0.90130000  0.62839900 -0.73100000
O        O    0.13460000  0.36610000  0.09040030 -0.73100000
O        O    0.63460100  0.86610000  0.09040030 -0.73100000
O        O    0.63460100  0.36610000  0.59040000 -0.73100000
O        O    0.13460000  0.86610000  0.59040000 -0.73100000
O        O    0.05090000  0.26770100  0.07640010 -0.73100000
O        O    0.55089900  0.76770000  0.07640010 -0.73100000
O        O    0.55089900  0.26770100  0.57639900 -0.73100000
O        O    0.05090000  0.76770000  0.57639900 -0.73100000
O        O    0.08910000  0.30190000  0.06139990 -0.73100000
O        O    0.58909900  0.80190000  0.06139990 -0.73100000
O        O    0.58909900  0.30190000  0.56140100 -0.73100000
O        O    0.08910000  0.80190000  0.56140100 -0.73100000
O        O    0.02199970  0.27660000  0.07240040 -0.73100000
O        O    0.52200000  0.77660000  0.07240040 -0.73100000
O        O    0.52200000  0.27660000  0.57240000 -0.73100000
O        O    0.02199970  0.77660000  0.57240000 -0.73100000
O        O    0.53420000  0.23790000  0.47230100 -0.73100000
O        O    0.03420030  0.73790000  0.47230100 -0.73100000
O        O    0.03420030  0.23790000  0.97230000 -0.73100000
O        O    0.53420000  0.73790000  0.97230000 -0.73100000
O        O    0.02470040  0.31979900  0.04619940 -0.73100000
O        O    0.52470000  0.81980000  0.04619940 -0.73100000
O        O    0.52470000  0.31979900  0.54620000 -0.73100000
O        O    0.02470040  0.81980000  0.54620000 -0.73100000
O        O    0.07609970  0.30950000  0.03469960 -0.58700000
O        O    0.57610000  0.80950000  0.03469960 -0.58700000
O        O    0.57610000  0.30950000  0.53470000 -0.58700000
O        O    0.07609970  0.80950000  0.53470000 -0.58700000
O        O    0.59160000  0.44670000  0.49870000 -0.58700000
O        O    0.09160050  0.94670000  0.49870000 -0.58700000
O        O    0.09160050  0.44670000  0.99870000 -0.58700000
O        O    0.59160000  0.94670000  0.99870000 -0.58700000
O        O    0.22260000  0.42970000  0.16980000 -0.58700000
O        O    0.72260100  0.92970000  0.16980000 -0.58700000
O        O    0.72260100  0.42970000  0.66979900 -0.58700000
O        O    0.22260000  0.92970000  0.66979900 -0.58700000
O        O    0.11880000  0.43660000  0.00990046 -0.73100000
O        O    0.61879900  0.93660000  0.00990046 -0.73100000
O        O    0.61879900  0.43660000  0.50990000 -0.73100000
O        O    0.11880000  0.93660000  0.50990000 -0.73100000
O        O    0.21180000  0.42080000  0.14070000 -0.73100000
O        O    0.71180000  0.92080000  0.14070000 -0.73100000
O        O    0.71180000  0.42080000  0.64070000 -0.73100000
O        O    0.21180000  0.92080000  0.64070000 -0.73100000
O        O    0.11840000  0.38659900  0.02499940 -0.73100000
O        O    0.61840000  0.88660000  0.02499940 -0.73100000
O        O    0.61840000  0.38659900  0.52500000 -0.73100000
O        O    0.11840000  0.88660000  0.52500000 -0.73100000
O        O    0.10150000  0.36840100  0.00680057 -0.73100000
O        O    0.60150000  0.86840000  0.00680057 -0.73100000
O        O    0.60150000  0.36840100  0.50680000 -0.73100000
O        O    0.10150000  0.86840000  0.50680000 -0.73100000
C        C    0.17500000  0.41830100  0.15110100  0.11000000
C        C    0.67499900  0.91830000  0.15110100  0.11000000
C        C    0.67499900  0.41830100  0.65110000  0.11000000
C        C    0.17500000  0.91830000  0.65110000  0.11000000
C        C    0.18840000  0.42910000  0.16440000 -0.27400000
C        C    0.68840000  0.92910000  0.16440000 -0.27400000
C        C    0.68840000  0.42910000  0.66439900 -0.27400000
C        C    0.18840000  0.92910000  0.66439900 -0.27400000
C        C    0.20849900  0.42790100  0.15770000  0.84800000
C        C    0.70850000  0.92790000  0.15770000  0.84800000
C        C    0.70850000  0.42790100  0.65770000  0.84800000
C        C    0.20849900  0.92790000  0.65770000  0.84800000
C        C    0.04080070  0.23389900  0.08999980  0.11000000
C        C    0.54080000  0.73390000  0.08999980  0.11000000
C        C    0.54080000  0.23389900  0.59000100  0.11000000
C        C    0.04080070  0.73390000  0.59000100  0.11000000
C        C    0.02749990  0.24740000  0.08659950 -0.27400000
C        C    0.52750100  0.74740000  0.08659950 -0.27400000
C        C    0.52750100  0.24740000  0.58660000 -0.27400000
C        C    0.02749990  0.74740000  0.58660000 -0.27400000
C        C    0.03379980  0.26370000  0.07760020  0.84800000
C        C    0.53380100  0.76370000  0.07760020  0.84800000
C        C    0.53380100  0.26370000  0.57760000  0.84800000
C        C    0.03379980  0.76370000  0.57760000  0.84800000
C        C    0.10190000  0.32740000  0.04690030 -0.27400000
C        C    0.60189900  0.82740000  0.04690030 -0.27400000
C        C    0.60189900  0.32740000  0.54690000 -0.27400000
C        C    0.10190000  0.82740000  0.54690000 -0.27400000
C        C    0.10510000  0.33850000  0.03110040  0.11000000
C        C    0.60509900  0.83850000  0.03110040  0.11000000
C        C    0.60509900  0.33850000  0.53110000  0.11000000
C        C    0.10510000  0.83850000  0.53110000  0.11000000
C        C    0.11390100  0.35660000  0.03440060 -0.27400000
C        C    0.61390000  0.85660000  0.03440060 -0.27400000
C        C    0.61390000  0.35660000  0.53440000 -0.27400000
C        C    0.11390100  0.85660000  0.53440000 -0.27400000
C        C    0.12020000  0.36160000  0.05289980  0.11000000
C        C    0.62020000  0.86160100  0.05289980  0.11000000
C        C    0.62020000  0.36160000  0.55290100  0.11000000
C        C    0.12020000  0.86160100  0.55290100  0.11000000
C        C    0.11990000  0.34780000  0.06749950 -0.27400000
C        C    0.61989900  0.84780100  0.06749950 -0.27400000
C        C    0.61989900  0.34780000  0.56750000 -0.27400000
C        C    0.11990000  0.84780100  0.56750000 -0.27400000
C        C    0.11380000  0.32970000  0.06270020  0.11000000
C        C    0.61380000  0.82970100  0.06270020  0.11000000
C        C    0.61380000  0.32970000  0.56269900  0.11000000
C        C    0.11380000  0.82970100  0.56269900  0.11000000
C        C    0.12700000  0.35130000  0.08630050  0.84800000
C        C    0.62700000  0.85130000  0.08630050  0.84800000
C        C    0.62700000  0.35130000  0.58630000  0.84800000
C        C    0.12700000  0.85130000  0.58630000  0.84800000
C        C    0.11080100  0.37150000  0.02170060  0.84800000
C        C    0.61080000  0.87150000  0.02170060  0.84800000
C        C    0.61080000  0.37150000  0.52170000  0.84800000
C        C    0.11080100  0.87150000  0.52170000  0.84800000
C        C    0.08859940  0.31270000  0.04759980  0.84800000
C        C    0.58860000  0.81270100  0.04759980  0.84800000
C        C    0.58860000  0.31270000  0.54760100  0.84800000
C        C    0.08859940  0.81270100  0.54760100  0.84800000
C        C    0.03909980  0.37880000  0.01530060 -0.27400000
C        C    0.53910100  0.87880000  0.01530060 -0.27400000
C        C    0.53910100  0.37880000  0.51530000 -0.27400000
C        C    0.03909980  0.87880000  0.51530000 -0.27400000
C        C    0.04070050  0.35660000  0.01759940  0.11000000
C        C    0.54070000  0.85660000  0.01759940  0.11000000
C        C    0.54070000  0.35660000  0.51760000  0.11000000
C        C    0.04070050  0.85660000  0.51760000  0.11000000
C        C    0.61039900  0.44809900  0.49950000  0.84800000
C        C    0.11040000  0.94810000  0.49950000  0.84800000
C        C    0.11040000  0.44809900  0.99949900  0.84800000
C        C    0.61039900  0.94810000  0.99949900  0.84800000
H        H    0.07056650  0.31800800  0.11789200  0.10000000
H        H    0.57056700  0.81800900  0.11789200  0.10000000
H        H    0.57056700  0.31800800  0.61789300  0.10000000
H        H    0.07056650  0.81800900  0.61789300  0.10000000
H        H    0.01693970  0.33332400  0.10095500  0.10000000
H        H    0.51693900  0.83332400  0.10095500  0.10000000
H        H    0.51693900  0.33332400  0.60095400  0.10000000
H        H    0.01693970  0.83332400  0.60095400  0.10000000
H        H    0.14551700  0.14617600  0.06196770  0.10000000
H        H    0.64551600  0.64617700  0.06196770  0.10000000
H        H    0.64551600  0.14617600  0.56196800  0.10000000
H        H    0.14551700  0.64617700  0.56196800  0.10000000
H        H    0.13671400  0.41776800  0.17780400  0.10000000
H        H    0.63671400  0.91776900  0.17780400  0.10000000
H        H    0.63671400  0.41776800  0.67780400  0.10000000
H        H    0.13671400  0.91776900  0.67780400  0.10000000
H        H    0.18998900  0.44518700  0.18962300  0.10000000
H        H    0.68998900  0.94518800  0.18962300  0.10000000
H        H    0.68998900  0.44518700  0.68962400  0.10000000
H        H    0.18998900  0.94518800  0.68962400  0.10000000
H        H    0.12473900  0.37611200  0.19422100  0.10000000
H        H    0.62474000  0.87611300  0.19422100  0.10000000
H        H    0.62474000  0.37611200  0.69422000  0.10000000
H        H    0.12473900  0.87611300  0.69422000  0.10000000
H        H    0.05591740  0.23782800  0.09072950  0.10000000
H        H    0.55591800  0.73782700  0.09072950  0.10000000
H        H    0.55591800  0.23782800  0.59073000  0.10000000
H        H    0.05591740  0.73782700  0.59073000  0.10000000
H        H    0.05085200  0.34916100  0.01007190  0.10000000
H        H    0.55085300  0.84916000  0.01007190  0.10000000
H        H    0.55085300  0.34916100  0.51007100  0.10000000
H        H    0.05085200  0.84916000  0.51007100  0.10000000
Cr       Cr   0.22740100  0.29660000  0.19520000  1.62000000
Cr       Cr   0.72740000  0.79660000  0.19520000  1.62000000
Cr       Cr   0.72740000  0.29660000  0.69519900  1.62000000
Cr       Cr   0.22740100  0.79660000  0.69519900  1.62000000
Cr       Cr   0.13030000  0.40999900  0.23640000  1.85900000
Cr       Cr   0.63030100  0.91000000  0.23640000  1.85900000
Cr       Cr   0.63030100  0.40999900  0.73640100  1.85900000
Cr       Cr   0.13030000  0.91000000  0.73640100  1.85900000
O        O    0.18290100  0.20629900  0.15429900 -0.73100000
O        O    0.68290000  0.70630000  0.15429900 -0.73100000
O        O    0.68290000  0.20629900  0.65430000 -0.73100000
O        O    0.18290100  0.70630000  0.65430000 -0.73100000
O        O    0.16440000  0.18500100  0.13470000 -0.73100000
O        O    0.66439900  0.68500000  0.13470000 -0.73100000
O        O    0.66439900  0.18500100  0.63469900 -0.73100000
O        O    0.16440000  0.68500000  0.63469900 -0.73100000
O        O    0.12350100  0.33850000  0.15170000 -0.73100000
O        O    0.62350000  0.83850000  0.15170000 -0.73100000
O        O    0.62350000  0.33850000  0.65169900 -0.73100000
O        O    0.12350100  0.83850000  0.65169900 -0.73100000
O        O    0.10010100  0.40130100  0.12160000 -0.58700000
O        O    0.60010000  0.90130000  0.12160000 -0.58700000
O        O    0.60010000  0.40130100  0.62160000 -0.58700000
O        O    0.10010100  0.90130000  0.62160000 -0.58700000
O        O    0.11540000  0.36610000  0.15959900 -0.58700000
O        O    0.61540000  0.86610000  0.15959900 -0.58700000
O        O    0.61540000  0.36610000  0.65960000 -0.58700000
O        O    0.11540000  0.86610000  0.65960000 -0.58700000
O        O    0.19910000  0.26770100  0.17360000 -0.73100000
O        O    0.69910000  0.76770000  0.17360000 -0.73100000
O        O    0.69910000  0.26770100  0.67360000 -0.73100000
O        O    0.19910000  0.76770000  0.67360000 -0.73100000
O        O    0.16090000  0.30190000  0.18860000 -0.73100000
O        O    0.66090000  0.80190000  0.18860000 -0.73100000
O        O    0.66090000  0.30190000  0.68860000 -0.73100000
O        O    0.16090000  0.80190000  0.68860000 -0.73100000
O        O    0.22800000  0.27660000  0.17760100 -0.58700000
O        O    0.72800100  0.77660000  0.17760100 -0.58700000
O        O    0.72800100  0.27660000  0.67760000 -0.58700000
O        O    0.22800000  0.77660000  0.67760000 -0.58700000
O        O    0.21579900  0.23790000  0.27770000 -0.58700000
O        O    0.71580000  0.73790000  0.27770000 -0.58700000
O        O    0.71580000  0.23790000  0.77770100 -0.58700000
O        O    0.21579900  0.73790000  0.77770100 -0.58700000
O        O    0.22530100  0.31979900  0.20380000 -0.58700000
O        O    0.72530000  0.81980000  0.20380000 -0.58700000
O        O    0.72530000  0.31979900  0.70380000 -0.58700000
O        O    0.22530100  0.81980000  0.70380000 -0.58700000
O        O    0.17390000  0.30950000  0.21530000 -0.73100000
O        O    0.67390100  0.80950000  0.21530000 -0.73100000
O        O    0.67390100  0.30950000  0.71529900 -0.73100000
O        O    0.17390000  0.80950000  0.71529900 -0.73100000
O        O    0.15840100  0.44670000  0.25130000 -0.73100000
O        O    0.65840000  0.94670000  0.25130000 -0.73100000
O        O    0.65840000  0.44670000  0.75130100 -0.73100000
O        O    0.15840100  0.94670000  0.75130100 -0.73100000
O        O    0.02739980  0.42970000  0.08019950 -0.73100000
O        O    0.52740000  0.92970000  0.08019950 -0.73100000
O        O    0.52740000  0.42970000  0.58020000 -0.73100000
O        O    0.02739980  0.92970000  0.58020000 -0.73100000
O        O    0.13120000  0.43660000  0.24010100 -0.73100000
O        O    0.63120000  0.93660000  0.24010100 -0.73100000
O        O    0.63120000  0.43660000  0.74010000 -0.73100000
O        O    0.13120000  0.93660000  0.74010000 -0.73100000
O        O    0.03820000  0.42080000  0.10930000 -0.73100000
O        O    0.53819900  0.92080000  0.10930000 -0.73100000
O        O    0.53819900  0.42080000  0.60929900 -0.73100000
O        O    0.03820000  0.92080000  0.60929900 -0.73100000
O        O    0.13160000  0.38659900  0.22500000 -0.73100000
O        O    0.63159900  0.88660000  0.22500000 -0.73100000
O        O    0.63159900  0.38659900  0.72500000 -0.73100000
O        O    0.13160000  0.88660000  0.72500000 -0.73100000
O        O    0.14850000  0.36840100  0.24320000 -0.58700000
O        O    0.64849900  0.86840000  0.24320000 -0.58700000
O        O    0.64849900  0.36840100  0.74320000 -0.58700000
O        O    0.14850000  0.86840000  0.74320000 -0.58700000
F        F    0.25140000  0.30169900  0.18480000 -0.56600000
F        F    0.75139900  0.80170000  0.18480000 -0.56600000
F        F    0.75139900  0.30169900  0.68480000 -0.56600000
F        F    0.25140000  0.80170000  0.68480000 -0.56600000
C        C    0.07499960  0.41830100  0.09890040  0.11000000
C        C    0.57500000  0.91830000  0.09890040  0.11000000
C        C    0.57500000  0.41830100  0.59890000  0.11000000
C        C    0.07499960  0.91830000  0.59890000  0.11000000
C        C    0.06160010  0.42910000  0.08559960 -0.27400000
C        C    0.56159900  0.92910000  0.08559960 -0.27400000
C        C    0.56159900  0.42910000  0.58560000 -0.27400000
C        C    0.06160010  0.92910000  0.58560000 -0.27400000
C        C    0.04150020  0.42790100  0.09230010  0.84800000
C        C    0.54149900  0.92790000  0.09230010  0.84800000
C        C    0.54149900  0.42790100  0.59229900  0.84800000
C        C    0.04150020  0.92790000  0.59229900  0.84800000
C        C    0.20920000  0.23389900  0.16000000  0.11000000
C        C    0.70920000  0.73390000  0.16000000  0.11000000
C        C    0.70920000  0.23389900  0.66000100  0.11000000
C        C    0.20920000  0.73390000  0.66000100  0.11000000
C        C    0.22250000  0.24740000  0.16340000 -0.27400000
C        C    0.72250000  0.74740000  0.16340000 -0.27400000
C        C    0.72250000  0.24740000  0.66339900 -0.27400000
C        C    0.22250000  0.74740000  0.66339900 -0.27400000
C        C    0.21620000  0.26370000  0.17239900  0.84800000
C        C    0.71620100  0.76370000  0.17239900  0.84800000
C        C    0.71620100  0.26370000  0.67240000  0.84800000
C        C    0.21620000  0.76370000  0.67240000  0.84800000
C        C    0.14810000  0.32740000  0.20309900 -0.27400000
C        C    0.64810000  0.82740000  0.20309900 -0.27400000
C        C    0.64810000  0.32740000  0.70310000 -0.27400000
C        C    0.14810000  0.82740000  0.70310000 -0.27400000
C        C    0.14490000  0.33850000  0.21890100  0.11000000
C        C    0.64490000  0.83850000  0.21890100  0.11000000
C        C    0.64490000  0.33850000  0.71890000  0.11000000
C        C    0.14490000  0.83850000  0.71890000  0.11000000
C        C    0.13610000  0.35660000  0.21560000 -0.27400000
C        C    0.63610000  0.85660000  0.21560000 -0.27400000
C        C    0.63610000  0.35660000  0.71560000 -0.27400000
C        C    0.13610000  0.85660000  0.71560000 -0.27400000
C        C    0.12980100  0.36160000  0.19710000  0.11000000
C        C    0.62980000  0.86160100  0.19710000  0.11000000
C        C    0.62980000  0.36160000  0.69710100  0.11000000
C        C    0.12980100  0.86160100  0.69710100  0.11000000
C        C    0.13010000  0.34780000  0.18250000 -0.27400000
C        C    0.63010000  0.84780100  0.18250000 -0.27400000
C        C    0.63010000  0.34780000  0.68249900 -0.27400000
C        C    0.13010000  0.84780100  0.68249900 -0.27400000
C        C    0.13620100  0.32970000  0.18729900  0.11000000
C        C    0.63620000  0.82970100  0.18729900  0.11000000
C        C    0.63620000  0.32970000  0.68730000  0.11000000
C        C    0.13620100  0.82970100  0.68730000  0.11000000
C        C    0.12300000  0.35130000  0.16370100  0.84800000
C        C    0.62299900  0.85130000  0.16370100  0.84800000
C        C    0.62299900  0.35130000  0.66370000  0.84800000
C        C    0.12300000  0.85130000  0.66370000  0.84800000
C        C    0.13920000  0.37150000  0.22830000  0.84800000
C        C    0.63920000  0.87150000  0.22830000  0.84800000
C        C    0.63920000  0.37150000  0.72830000  0.84800000
C        C    0.13920000  0.87150000  0.72830000  0.84800000
C        C    0.16140000  0.31270000  0.20240000  0.84800000
C        C    0.66140000  0.81270100  0.20240000  0.84800000
C        C    0.66140000  0.31270000  0.70240000  0.84800000
C        C    0.16140000  0.81270100  0.70240000  0.84800000
C        C    0.21090000  0.37880000  0.23470000 -0.27400000
C        C    0.71090100  0.87880000  0.23470000 -0.27400000
C        C    0.71090100  0.37880000  0.73470000 -0.27400000
C        C    0.21090000  0.87880000  0.73470000 -0.27400000
C        C    0.20930100  0.35660000  0.23240000  0.11000000
C        C    0.70930000  0.85660000  0.23240000  0.11000000
C        C    0.70930000  0.35660000  0.73240000  0.11000000
C        C    0.20930100  0.85660000  0.73240000  0.11000000
C        C    0.13960000  0.44809900  0.25050000  0.84800000
C        C    0.63960000  0.94810000  0.25050000  0.84800000
C        C    0.63960000  0.44809900  0.75050000  0.84800000
C        C    0.13960000  0.94810000  0.75050000  0.84800000
H        H    0.17943300  0.31800800  0.13210800  0.10000000
H        H    0.67943200  0.81800900  0.13210800  0.10000000
H        H    0.67943200  0.31800800  0.63210800  0.10000000
H        H    0.17943300  0.81800900  0.63210800  0.10000000
H        H    0.23306100  0.33332400  0.14904600  0.10000000
H        H    0.73306100  0.83332400  0.14904600  0.10000000
H        H    0.73306100  0.33332400  0.64904500  0.10000000
H        H    0.23306100  0.83332400  0.64904500  0.10000000
H        H    0.10448400  0.14617600  0.18803200  0.10000000
H        H    0.60448400  0.64617700  0.18803200  0.10000000
H        H    0.60448400  0.14617600  0.68803100  0.10000000
H        H    0.10448400  0.64617700  0.68803100  0.10000000
H        H    0.11328600  0.41776800  0.07219600  0.10000000
H        H    0.61328700  0.91776900  0.07219600  0.10000000
H        H    0.61328700  0.41776800  0.57219700  0.10000000
H        H    0.11328600  0.91776900  0.57219700  0.10000000
H        H    0.06001040  0.44518700  0.06037660  0.10000000
H        H    0.56001100  0.94518800  0.06037660  0.10000000
H        H    0.56001100  0.44518700  0.56037600  0.10000000
H        H    0.06001040  0.94518800  0.56037600  0.10000000
H        H    0.12526000  0.37611200  0.05578030  0.10000000
H        H    0.62526100  0.87611300  0.05578030  0.10000000
H        H    0.62526100  0.37611200  0.55578000  0.10000000
H        H    0.12526000  0.87611300  0.55578000  0.10000000
H        H    0.19408200  0.23782800  0.15927000  0.10000000
H        H    0.69408200  0.73782700  0.15927000  0.10000000
H        H    0.69408200  0.23782800  0.65927100  0.10000000
H        H    0.19408200  0.73782700  0.65927100  0.10000000
H        H    0.19914800  0.34916100  0.23992900  0.10000000
H        H    0.69914700  0.84916000  0.23992900  0.10000000
H        H    0.69914700  0.34916100  0.73992800  0.10000000
H        H    0.19914800  0.84916000  0.73992800  0.10000000
Cr       Cr   0.72740000  0.45339900  0.05479960  1.62000000
Cr       Cr   0.22740100  0.95340000  0.05479960  1.62000000
Cr       Cr   0.22740100  0.45339900  0.55480000  1.62000000
Cr       Cr   0.72740000  0.95340000  0.55480000  1.62000000
Cr       Cr   0.63030100  0.33999900  0.01359980  1.85900000
Cr       Cr   0.13030000  0.84000000  0.01359980  1.85900000
Cr       Cr   0.13030000  0.33999900  0.51360000  1.85900000
Cr       Cr   0.63030100  0.84000000  0.51360000  1.85900000
O        O    0.18290100  0.04370030  0.09570030 -0.58700000
O        O    0.68290000  0.54370000  0.09570030 -0.58700000
O        O    0.68290000  0.04370030  0.59570000 -0.58700000
O        O    0.18290100  0.54370000  0.59570000 -0.58700000
O        O    0.16440000  0.06500040  0.11530000 -0.58700000
O        O    0.66439900  0.56500000  0.11530000 -0.58700000
O        O    0.66439900  0.06500040  0.61530000 -0.58700000
O        O    0.16440000  0.56500000  0.61530000 -0.58700000
O        O    0.62350000  0.41150000  0.09829960 -0.73100000
O        O    0.12350100  0.91149900  0.09829960 -0.73100000
O        O    0.12350100  0.41150000  0.59830000 -0.73100000
O        O    0.62350000  0.91149900  0.59830000 -0.73100000
O        O    0.60010000  0.34870000  0.12840000 -0.58700000
O        O    0.10010100  0.84870000  0.12840000 -0.58700000
O        O    0.10010100  0.34870000  0.62839900 -0.58700000
O        O    0.60010000  0.84870000  0.62839900 -0.58700000
O        O    0.61540000  0.38390000  0.09040030 -0.58700000
O        O    0.11540000  0.88389900  0.09040030 -0.58700000
O        O    0.11540000  0.38390000  0.59040000 -0.58700000
O        O    0.61540000  0.88389900  0.59040000 -0.58700000
O        O    0.69910000  0.48230000  0.07640010 -0.73100000
O        O    0.19910000  0.98230000  0.07640010 -0.73100000
O        O    0.19910000  0.48230000  0.57639900 -0.73100000
O        O    0.69910000  0.98230000  0.57639900 -0.73100000
O        O    0.66090000  0.44809900  0.06139990 -0.73100000
O        O    0.16090000  0.94810000  0.06139990 -0.73100000
O        O    0.16090000  0.44809900  0.56140100 -0.73100000
O        O    0.66090000  0.94810000  0.56140100 -0.73100000
O        O    0.72800100  0.47340100  0.07240040 -0.58700000
O        O    0.22800000  0.97340000  0.07240040 -0.58700000
O        O    0.22800000  0.47340100  0.57240000 -0.58700000
O        O    0.72800100  0.97340000  0.57240000 -0.58700000
O        O    0.71580000  0.01210060  0.47230100 -0.58700000
O        O    0.21579900  0.51210000  0.47230100 -0.58700000
O        O    0.21579900  0.01210060  0.97230000 -0.58700000
O        O    0.71580000  0.51210000  0.97230000 -0.58700000
O        O    0.72530000  0.43020000  0.04619940 -0.58700000
O        O    0.22530100  0.93020000  0.04619940 -0.58700000
O        O    0.22530100  0.43020000  0.54620000 -0.58700000
O        O    0.72530000  0.93020000  0.54620000 -0.58700000
O        O    0.67390100  0.44050100  0.03469960 -0.73100000
O        O    0.17390000  0.94050000  0.03469960 -0.73100000
O        O    0.17390000  0.44050100  0.53470000 -0.73100000
O        O    0.67390100  0.94050000  0.53470000 -0.73100000
O        O    0.15840100  0.30330000  0.49870000 -0.58700000
O        O    0.65840000  0.80330100  0.49870000 -0.58700000
O        O    0.65840000  0.30330000  0.99870000 -0.58700000
O        O    0.15840100  0.80330100  0.99870000 -0.58700000
O        O    0.52740000  0.32030000  0.16980000 -0.58700000
O        O    0.02739980  0.82029900  0.16980000 -0.58700000
O        O    0.02739980  0.32030000  0.66979900 -0.58700000
O        O    0.52740000  0.82029900  0.66979900 -0.58700000
O        O    0.63120000  0.31339900  0.00990046 -0.73100000
O        O    0.13120000  0.81340000  0.00990046 -0.73100000
O        O    0.13120000  0.31339900  0.50990000 -0.73100000
O        O    0.63120000  0.81340000  0.50990000 -0.73100000
O        O    0.53819900  0.32920100  0.14070000 -0.73100000
O        O    0.03820000  0.82920000  0.14070000 -0.73100000
O        O    0.03820000  0.32920100  0.64070000 -0.73100000
O        O    0.53819900  0.82920000  0.64070000 -0.73100000
O        O    0.63159900  0.36340000  0.02499940 -0.73100000
O        O    0.13160000  0.86340000  0.02499940 -0.73100000
O        O    0.13160000  0.36340000  0.52500000 -0.73100000
O        O    0.63159900  0.86340000  0.52500000 -0.73100000
O        O    0.64849900  0.38160000  0.00680057 -0.73100000
O        O    0.14850000  0.88160000  0.00680057 -0.73100000
O        O    0.14850000  0.38160000  0.50680000 -0.73100000
O        O    0.64849900  0.88160000  0.50680000 -0.73100000
F        F    0.75139900  0.44830000  0.06520070 -0.56600000
F        F    0.25140000  0.94830000  0.06520070 -0.56600000
F        F    0.25140000  0.44830000  0.56520000 -0.56600000
F        F    0.75139900  0.94830000  0.56520000 -0.56600000
C        C    0.57500000  0.33170000  0.15110100  0.11000000
C        C    0.07499960  0.83170000  0.15110100  0.11000000
C        C    0.07499960  0.33170000  0.65110000  0.11000000
C        C    0.57500000  0.83170000  0.65110000  0.11000000
C        C    0.56159900  0.32089900  0.16440000 -0.27400000
C        C    0.06160010  0.82090000  0.16440000 -0.27400000
C        C    0.06160010  0.32089900  0.66439900 -0.27400000
C        C    0.56159900  0.82090000  0.66439900 -0.27400000
C        C    0.54149900  0.32210000  0.15770000  0.84800000
C        C    0.04150020  0.82210000  0.15770000  0.84800000
C        C    0.04150020  0.32210000  0.65770000  0.84800000
C        C    0.54149900  0.82210000  0.65770000  0.84800000
C        C    0.20920000  0.01610030  0.08999980  0.11000000
C        C    0.70920000  0.51610000  0.08999980  0.11000000
C        C    0.70920000  0.01610030  0.59000100  0.11000000
C        C    0.20920000  0.51610000  0.59000100  0.11000000
C        C    0.22250000  0.00260062  0.08659950 -0.27400000
C        C    0.72250000  0.50260000  0.08659950 -0.27400000
C        C    0.72250000  0.00260062  0.58660000 -0.27400000
C        C    0.22250000  0.50260000  0.58660000 -0.27400000
C        C    0.71620100  0.48629900  0.07760020  0.84800000
C        C    0.21620000  0.98630000  0.07760020  0.84800000
C        C    0.21620000  0.48629900  0.57760000  0.84800000
C        C    0.71620100  0.98630000  0.57760000  0.84800000
C        C    0.64810000  0.42259900  0.04690030 -0.27400000
C        C    0.14810000  0.92260000  0.04690030 -0.27400000
C        C    0.14810000  0.42259900  0.54690000 -0.27400000
C        C    0.64810000  0.92260000  0.54690000 -0.27400000
C        C    0.64490000  0.41150000  0.03110040  0.11000000
C        C    0.14490000  0.91149900  0.03110040  0.11000000
C        C    0.14490000  0.41150000  0.53110000  0.11000000
C        C    0.64490000  0.91149900  0.53110000  0.11000000
C        C    0.63610000  0.39340000  0.03440060 -0.27400000
C        C    0.13610000  0.89340100  0.03440060 -0.27400000
C        C    0.13610000  0.39340000  0.53440000 -0.27400000
C        C    0.63610000  0.89340100  0.53440000 -0.27400000
C        C    0.62980000  0.38840000  0.05289980  0.11000000
C        C    0.12980100  0.88840000  0.05289980  0.11000000
C        C    0.12980100  0.38840000  0.55290100  0.11000000
C        C    0.62980000  0.88840000  0.55290100  0.11000000
C        C    0.63010000  0.40220000  0.06749950 -0.27400000
C        C    0.13010000  0.90220000  0.06749950 -0.27400000
C        C    0.13010000  0.40220000  0.56750000 -0.27400000
C        C    0.63010000  0.90220000  0.56750000 -0.27400000
C        C    0.63620000  0.42030000  0.06270020  0.11000000
C        C    0.13620100  0.92030000  0.06270020  0.11000000
C        C    0.13620100  0.42030000  0.56269900  0.11000000
C        C    0.63620000  0.92030000  0.56269900  0.11000000
C        C    0.62299900  0.39870000  0.08630050  0.84800000
C        C    0.12300000  0.89870100  0.08630050  0.84800000
C        C    0.12300000  0.39870000  0.58630000  0.84800000
C        C    0.62299900  0.89870100  0.58630000  0.84800000
C        C    0.63920000  0.37850000  0.02170060  0.84800000
C        C    0.13920000  0.87850100  0.02170060  0.84800000
C        C    0.13920000  0.37850000  0.52170000  0.84800000
C        C    0.63920000  0.87850100  0.52170000  0.84800000
C        C    0.66140000  0.43730100  0.04759980  0.84800000
C        C    0.16140000  0.93730000  0.04759980  0.84800000
C        C    0.16140000  0.43730100  0.54760100  0.84800000
C        C    0.66140000  0.93730000  0.54760100  0.84800000
C        C    0.71090100  0.37120000  0.01530060 -0.27400000
C        C    0.21090000  0.87119900  0.01530060 -0.27400000
C        C    0.21090000  0.37120000  0.51530000 -0.27400000
C        C    0.71090100  0.87119900  0.51530000 -0.27400000
C        C    0.70930000  0.39340000  0.01759940  0.11000000
C        C    0.20930100  0.89340100  0.01759940  0.11000000
C        C    0.20930100  0.39340000  0.51760000  0.11000000
C        C    0.70930000  0.89340100  0.51760000  0.11000000
C        C    0.13960000  0.30190000  0.49950000  0.84800000
C        C    0.63960000  0.80190000  0.49950000  0.84800000
C        C    0.63960000  0.30190000  0.99949900  0.84800000
C        C    0.13960000  0.80190000  0.99949900  0.84800000
H        H    0.67943200  0.43199100  0.11789200  0.10000000
H        H    0.17943300  0.93199200  0.11789200  0.10000000
H        H    0.17943300  0.43199100  0.61789300  0.10000000
H        H    0.67943200  0.93199200  0.61789300  0.10000000
H        H    0.73306100  0.41667500  0.10095500  0.10000000
H        H    0.23306100  0.91667600  0.10095500  0.10000000
H        H    0.23306100  0.41667500  0.60095400  0.10000000
H        H    0.73306100  0.91667600  0.60095400  0.10000000
H        H    0.61328700  0.33223200  0.17780400  0.10000000
H        H    0.11328600  0.83223100  0.17780400  0.10000000
H        H    0.11328600  0.33223200  0.67780400  0.10000000
H        H    0.61328700  0.83223100  0.67780400  0.10000000
H        H    0.62526100  0.37388800  0.19422100  0.10000000
H        H    0.12526000  0.87388800  0.19422100  0.10000000
H        H    0.12526000  0.37388800  0.69422000  0.10000000
H        H    0.62526100  0.87388800  0.69422000  0.10000000
H        H    0.19408200  0.01217330  0.09072950  0.10000000
H        H    0.69408200  0.51217300  0.09072950  0.10000000
H        H    0.69408200  0.01217330  0.59073000  0.10000000
H        H    0.19408200  0.51217300  0.59073000  0.10000000
H        H    0.69914700  0.40084000  0.01007190  0.10000000
H        H    0.19914800  0.90083900  0.01007190  0.10000000
H        H    0.19914800  0.40084000  0.51007100  0.10000000
H        H    0.69914700  0.90083900  0.51007100  0.10000000
Cr       Cr   0.52260000  0.45339900  0.19520000  1.85900000
Cr       Cr   0.02260040  0.95340000  0.19520000  1.85900000
Cr       Cr   0.02260040  0.45339900  0.69519900  1.85900000
Cr       Cr   0.52260000  0.95340000  0.69519900  1.85900000
Cr       Cr   0.61970100  0.33999900  0.23640000  1.62000000
Cr       Cr   0.11970000  0.84000000  0.23640000  1.62000000
Cr       Cr   0.11970000  0.33999900  0.73640100  1.62000000
Cr       Cr   0.61970100  0.84000000  0.73640100  1.62000000
O        O    0.06710040  0.04370030  0.15429900 -0.58700000
O        O    0.56710000  0.54370000  0.15429900 -0.58700000
O        O    0.56710000  0.04370030  0.65430000 -0.58700000
O        O    0.06710040  0.54370000  0.65430000 -0.58700000
O        O    0.08559960  0.06500040  0.13470000 -0.58700000
O        O    0.58560000  0.56500000  0.13470000 -0.58700000
O        O    0.58560000  0.06500040  0.63469900 -0.58700000
O        O    0.08559960  0.56500000  0.63469900 -0.58700000
O        O    0.62650000  0.41150000  0.15170000 -0.73100000
O        O    0.12650000  0.91149900  0.15170000 -0.73100000
O        O    0.12650000  0.41150000  0.65169900 -0.73100000
O        O    0.62650000  0.91149900  0.65169900 -0.73100000
O        O    0.64990000  0.34870000  0.12160000 -0.73100000
O        O    0.14990000  0.84870000  0.12160000 -0.73100000
O        O    0.14990000  0.34870000  0.62160000 -0.73100000
O        O    0.64990000  0.84870000  0.62160000 -0.73100000
O        O    0.63460100  0.38390000  0.15959900 -0.73100000
O        O    0.13460000  0.88389900  0.15959900 -0.73100000
O        O    0.13460000  0.38390000  0.65960000 -0.73100000
O        O    0.63460100  0.88389900  0.65960000 -0.73100000
O        O    0.55089900  0.48230000  0.17360000 -0.73100000
O        O    0.05090000  0.98230000  0.17360000 -0.73100000
O        O    0.05090000  0.48230000  0.67360000 -0.73100000
O        O    0.55089900  0.98230000  0.67360000 -0.73100000
O        O    0.58909900  0.44809900  0.18860000 -0.73100000
O        O    0.08910000  0.94810000  0.18860000 -0.73100000
O        O    0.08910000  0.44809900  0.68860000 -0.73100000
O        O    0.58909900  0.94810000  0.68860000 -0.73100000
O        O    0.52200000  0.47340100  0.17760100 -0.73100000
O        O    0.02199970  0.97340000  0.17760100 -0.73100000
O        O    0.02199970  0.47340100  0.67760000 -0.73100000
O        O    0.52200000  0.97340000  0.67760000 -0.73100000
O        O    0.03420030  0.01210060  0.27770000 -0.73100000
O        O    0.53420000  0.51210000  0.27770000 -0.73100000
O        O    0.53420000  0.01210060  0.77770100 -0.73100000
O        O    0.03420030  0.51210000  0.77770100 -0.73100000
O        O    0.52470000  0.43020000  0.20380000 -0.73100000
O        O    0.02470040  0.93020000  0.20380000 -0.73100000
O        O    0.02470040  0.43020000  0.70380000 -0.73100000
O        O    0.52470000  0.93020000  0.70380000 -0.73100000
O        O    0.57610000  0.44050100  0.21530000 -0.58700000
O        O    0.07609970  0.94050000  0.21530000 -0.58700000
O        O    0.07609970  0.44050100  0.71529900 -0.58700000
O        O    0.57610000  0.94050000  0.71529900 -0.58700000
O        O    0.59160000  0.30330000  0.25130000 -0.73100000
O        O    0.09160050  0.80330100  0.25130000 -0.73100000
O        O    0.09160050  0.30330000  0.75130100 -0.73100000
O        O    0.59160000  0.80330100  0.75130100 -0.73100000
O        O    0.72260100  0.32030000  0.08019950 -0.73100000
O        O    0.22260000  0.82029900  0.08019950 -0.73100000
O        O    0.22260000  0.32030000  0.58020000 -0.73100000
O        O    0.72260100  0.82029900  0.58020000 -0.73100000
O        O    0.61879900  0.31339900  0.24010100 -0.58700000
O        O    0.11880000  0.81340000  0.24010100 -0.58700000
O        O    0.11880000  0.31339900  0.74010000 -0.58700000
O        O    0.61879900  0.81340000  0.74010000 -0.58700000
O        O    0.71180000  0.32920100  0.10930000 -0.58700000
O        O    0.21180000  0.82920000  0.10930000 -0.58700000
O        O    0.21180000  0.32920100  0.60929900 -0.58700000
O        O    0.71180000  0.82920000  0.60929900 -0.58700000
O        O    0.61840000  0.36340000  0.22500000 -0.58700000
O        O    0.11840000  0.86340000  0.22500000 -0.58700000
O        O    0.11840000  0.36340000  0.72500000 -0.58700000
O        O    0.61840000  0.86340000  0.72500000 -0.58700000
O        O    0.60150000  0.38160000  0.24320000 -0.73100000
O        O    0.10150000  0.88160000  0.24320000 -0.73100000
O        O    0.10150000  0.38160000  0.74320000 -0.73100000
O        O    0.60150000  0.88160000  0.74320000 -0.73100000
F        F    0.64250000  0.33450100  0.22570000 -0.56600000
F        F    0.14250100  0.83450000  0.22570000 -0.56600000
F        F    0.14250100  0.33450100  0.72570000 -0.56600000
F        F    0.64250000  0.83450000  0.72570000 -0.56600000
C        C    0.67499900  0.33170000  0.09890040  0.11000000
C        C    0.17500000  0.83170000  0.09890040  0.11000000
C        C    0.17500000  0.33170000  0.59890000  0.11000000
C        C    0.67499900  0.83170000  0.59890000  0.11000000
C        C    0.68840000  0.32089900  0.08559960 -0.27400000
C        C    0.18840000  0.82090000  0.08559960 -0.27400000
C        C    0.18840000  0.32089900  0.58560000 -0.27400000
C        C    0.68840000  0.82090000  0.58560000 -0.27400000
C        C    0.70850000  0.32210000  0.09230010  0.84800000
C        C    0.20849900  0.82210000  0.09230010  0.84800000
C        C    0.20849900  0.32210000  0.59229900  0.84800000
C        C    0.70850000  0.82210000  0.59229900  0.84800000
C        C    0.04080070  0.01610030  0.16000000  0.11000000
C        C    0.54080000  0.51610000  0.16000000  0.11000000
C        C    0.54080000  0.01610030  0.66000100  0.11000000
C        C    0.04080070  0.51610000  0.66000100  0.11000000
C        C    0.02749990  0.00260062  0.16340000 -0.27400000
C        C    0.52750100  0.50260000  0.16340000 -0.27400000
C        C    0.52750100  0.00260062  0.66339900 -0.27400000
C        C    0.02749990  0.50260000  0.66339900 -0.27400000
C        C    0.53380100  0.48629900  0.17239900  0.84800000
C        C    0.03379980  0.98630000  0.17239900  0.84800000
C        C    0.03379980  0.48629900  0.67240000  0.84800000
C        C    0.53380100  0.98630000  0.67240000  0.84800000
C        C    0.60189900  0.42259900  0.20309900 -0.27400000
C        C    0.10190000  0.92260000  0.20309900 -0.27400000
C        C    0.10190000  0.42259900  0.70310000 -0.27400000
C        C    0.60189900  0.92260000  0.70310000 -0.27400000
C        C    0.60509900  0.41150000  0.21890100  0.11000000
C        C    0.10510000  0.91149900  0.21890100  0.11000000
C        C    0.10510000  0.41150000  0.71890000  0.11000000
C        C    0.60509900  0.91149900  0.71890000  0.11000000
C        C    0.61390000  0.39340000  0.21560000 -0.27400000
C        C    0.11390100  0.89340100  0.21560000 -0.27400000
C        C    0.11390100  0.39340000  0.71560000 -0.27400000
C        C    0.61390000  0.89340100  0.71560000 -0.27400000
C        C    0.62020000  0.38840000  0.19710000  0.11000000
C        C    0.12020000  0.88840000  0.19710000  0.11000000
C        C    0.12020000  0.38840000  0.69710100  0.11000000
C        C    0.62020000  0.88840000  0.69710100  0.11000000
C        C    0.61989900  0.40220000  0.18250000 -0.27400000
C        C    0.11990000  0.90220000  0.18250000 -0.27400000
C        C    0.11990000  0.40220000  0.68249900 -0.27400000
C        C    0.61989900  0.90220000  0.68249900 -0.27400000
C        C    0.61380000  0.42030000  0.18729900  0.11000000
C        C    0.11380000  0.92030000  0.18729900  0.11000000
C        C    0.11380000  0.42030000  0.68730000  0.11000000
C        C    0.61380000  0.92030000  0.68730000  0.11000000
C        C    0.62700000  0.39870000  0.16370100  0.84800000
C        C    0.12700000  0.89870100  0.16370100  0.84800000
C        C    0.12700000  0.39870000  0.66370000  0.84800000
C        C    0.62700000  0.89870100  0.66370000  0.84800000
C        C    0.61080000  0.37850000  0.22830000  0.84800000
C        C    0.11080100  0.87850100  0.22830000  0.84800000
C        C    0.11080100  0.37850000  0.72830000  0.84800000
C        C    0.61080000  0.87850100  0.72830000  0.84800000
C        C    0.58860000  0.43730100  0.20240000  0.84800000
C        C    0.08859940  0.93730000  0.20240000  0.84800000
C        C    0.08859940  0.43730100  0.70240000  0.84800000
C        C    0.58860000  0.93730000  0.70240000  0.84800000
C        C    0.53910100  0.37120000  0.23470000 -0.27400000
C        C    0.03909980  0.87119900  0.23470000 -0.27400000
C        C    0.03909980  0.37120000  0.73470000 -0.27400000
C        C    0.53910100  0.87119900  0.73470000 -0.27400000
C        C    0.54070000  0.39340000  0.23240000  0.11000000
C        C    0.04070050  0.89340100  0.23240000  0.11000000
C        C    0.04070050  0.39340000  0.73240000  0.11000000
C        C    0.54070000  0.89340100  0.73240000  0.11000000
C        C    0.61039900  0.30190000  0.25050000  0.84800000
C        C    0.11040000  0.80190000  0.25050000  0.84800000
C        C    0.11040000  0.30190000  0.75050000  0.84800000
C        C    0.61039900  0.80190000  0.75050000  0.84800000
H        H    0.57056700  0.43199100  0.13210800  0.10000000
H        H    0.07056650  0.93199200  0.13210800  0.10000000
H        H    0.07056650  0.43199100  0.63210800  0.10000000
H        H    0.57056700  0.93199200  0.63210800  0.10000000
H        H    0.51693900  0.41667500  0.14904600  0.10000000
H        H    0.01693970  0.91667600  0.14904600  0.10000000
H        H    0.01693970  0.41667500  0.64904500  0.10000000
H        H    0.51693900  0.91667600  0.64904500  0.10000000
H        H    0.63671400  0.33223200  0.07219600  0.10000000
H        H    0.13671400  0.83223100  0.07219600  0.10000000
H        H    0.13671400  0.33223200  0.57219700  0.10000000
H        H    0.63671400  0.83223100  0.57219700  0.10000000
H        H    0.62474000  0.37388800  0.05578030  0.10000000
H        H    0.12473900  0.87388800  0.05578030  0.10000000
H        H    0.12473900  0.37388800  0.55578000  0.10000000
H        H    0.62474000  0.87388800  0.55578000  0.10000000
H        H    0.05591740  0.01217330  0.15927000  0.10000000
H        H    0.55591800  0.51217300  0.15927000  0.10000000
H        H    0.55591800  0.01217330  0.65927100  0.10000000
H        H    0.05591740  0.51217300  0.65927100  0.10000000
H        H    0.55085300  0.40084000  0.23992900  0.10000000
H        H    0.05085200  0.90083900  0.23992900  0.10000000
H        H    0.05085200  0.40084000  0.73992800  0.10000000
H        H    0.55085300  0.90083900  0.73992800  0.10000000
Cr       Cr   0.29660000  0.19520000  0.22740100  1.62000000
Cr       Cr   0.79660000  0.69519900  0.22740100  1.62000000
Cr       Cr   0.79660000  0.19520000  0.72740000  1.62000000
Cr       Cr   0.29660000  0.69519900  0.72740000  1.62000000
Cr       Cr   0.40999900  0.23640000  0.13030000  1.85900000
Cr       Cr   0.91000000  0.73640100  0.13030000  1.85900000
Cr       Cr   0.91000000  0.23640000  0.63030100  1.85900000
Cr       Cr   0.40999900  0.73640100  0.63030100  1.85900000
O        O    0.20629900  0.15429900  0.18290100 -0.73100000
O        O    0.70630000  0.65430000  0.18290100 -0.73100000
O        O    0.70630000  0.15429900  0.68290000 -0.73100000
O        O    0.20629900  0.65430000  0.68290000 -0.73100000
O        O    0.18500100  0.13470000  0.16440000 -0.73100000
O        O    0.68500000  0.63469900  0.16440000 -0.73100000
O        O    0.68500000  0.13470000  0.66439900 -0.73100000
O        O    0.18500100  0.63469900  0.66439900 -0.73100000
O        O    0.33850000  0.15170000  0.12350100 -0.73100000
O        O    0.83850000  0.65169900  0.12350100 -0.73100000
O        O    0.83850000  0.15170000  0.62350000 -0.73100000
O        O    0.33850000  0.65169900  0.62350000 -0.73100000
O        O    0.40130100  0.12160000  0.10010100 -0.58700000
O        O    0.90130000  0.62160000  0.10010100 -0.58700000
O        O    0.90130000  0.12160000  0.60010000 -0.58700000
O        O    0.40130100  0.62160000  0.60010000 -0.58700000
O        O    0.36610000  0.15959900  0.11540000 -0.58700000
O        O    0.86610000  0.65960000  0.11540000 -0.58700000
O        O    0.86610000  0.15959900  0.61540000 -0.58700000
O        O    0.36610000  0.65960000  0.61540000 -0.58700000
O        O    0.26770100  0.17360000  0.19910000 -0.73100000
O        O    0.76770000  0.67360000  0.19910000 -0.73100000
O        O    0.76770000  0.17360000  0.69910000 -0.73100000
O        O    0.26770100  0.67360000  0.69910000 -0.73100000
O        O    0.30190000  0.18860000  0.16090000 -0.73100000
O        O    0.80190000  0.68860000  0.16090000 -0.73100000
O        O    0.80190000  0.18860000  0.66090000 -0.73100000
O        O    0.30190000  0.68860000  0.66090000 -0.73100000
O        O    0.27660000  0.17760100  0.22800000 -0.58700000
O        O    0.77660000  0.67760000  0.22800000 -0.58700000
O        O    0.77660000  0.17760100  0.72800100 -0.58700000
O        O    0.27660000  0.67760000  0.72800100 -0.58700000
O        O    0.23790000  0.27770000  0.21579900 -0.58700000
O        O    0.73790000  0.77770100  0.21579900 -0.58700000
O        O    0.73790000  0.27770000  0.71580000 -0.58700000
O        O    0.23790000  0.77770100  0.71580000 -0.58700000
O        O    0.31979900  0.20380000  0.22530100 -0.58700000
O        O    0.81980000  0.70380000  0.22530100 -0.58700000
O        O    0.81980000  0.20380000  0.72530000 -0.58700000
O        O    0.31979900  0.70380000  0.72530000 -0.58700000
O        O    0.30950000  0.21530000  0.17390000 -0.73100000
O        O    0.80950000  0.71529900  0.17390000 -0.73100000
O        O    0.80950000  0.21530000  0.67390100 -0.73100000
O        O    0.30950000  0.71529900  0.67390100 -0.73100000
O        O    0.44670000  0.25130000  0.15840100 -0.73100000
O        O    0.94670000  0.75130100  0.15840100 -0.73100000
O        O    0.94670000  0.25130000  0.65840000 -0.73100000
O        O    0.44670000  0.75130100  0.65840000 -0.73100000
O        O    0.42970000  0.08019950  0.02739980 -0.73100000
O        O    0.92970000  0.58020000  0.02739980 -0.73100000
O        O    0.92970000  0.08019950  0.52740000 -0.73100000
O        O    0.42970000  0.58020000  0.52740000 -0.73100000
O        O    0.43660000  0.24010100  0.13120000 -0.73100000
O        O    0.93660000  0.74010000  0.13120000 -0.73100000
O        O    0.93660000  0.24010100  0.63120000 -0.73100000
O        O    0.43660000  0.74010000  0.63120000 -0.73100000
O        O    0.42080000  0.10930000  0.03820000 -0.73100000
O        O    0.92080000  0.60929900  0.03820000 -0.73100000
O        O    0.92080000  0.10930000  0.53819900 -0.73100000
O        O    0.42080000  0.60929900  0.53819900 -0.73100000
O        O    0.38659900  0.22500000  0.13160000 -0.73100000
O        O    0.88660000  0.72500000  0.13160000 -0.73100000
O        O    0.88660000  0.22500000  0.63159900 -0.73100000
O        O    0.38659900  0.72500000  0.63159900 -0.73100000
O        O    0.36840100  0.24320000  0.14850000 -0.58700000
O        O    0.86840000  0.74320000  0.14850000 -0.58700000
O        O    0.86840000  0.24320000  0.64849900 -0.58700000
O        O    0.36840100  0.74320000  0.64849900 -0.58700000
F        F    0.30169900  0.18480000  0.25140000 -0.56600000
F        F    0.80170000  0.68480000  0.25140000 -0.56600000
F        F    0.80170000  0.18480000  0.75139900 -0.56600000
F        F    0.30169900  0.68480000  0.75139900 -0.56600000
C        C    0.41830100  0.09890040  0.07499960  0.11000000
C        C    0.91830000  0.59890000  0.07499960  0.11000000
C        C    0.91830000  0.09890040  0.57500000  0.11000000
C        C    0.41830100  0.59890000  0.57500000  0.11000000
C        C    0.42910000  0.08559960  0.06160010 -0.27400000
C        C    0.92910000  0.58560000  0.06160010 -0.27400000
C        C    0.92910000  0.08559960  0.56159900 -0.27400000
C        C    0.42910000  0.58560000  0.56159900 -0.27400000
C        C    0.42790100  0.09230010  0.04150020  0.84800000
C        C    0.92790000  0.59229900  0.04150020  0.84800000
C        C    0.92790000  0.09230010  0.54149900  0.84800000
C        C    0.42790100  0.59229900  0.54149900  0.84800000
C        C    0.23389900  0.16000000  0.20920000  0.11000000
C        C    0.73390000  0.66000100  0.20920000  0.11000000
C        C    0.73390000  0.16000000  0.70920000  0.11000000
C        C    0.23389900  0.66000100  0.70920000  0.11000000
C        C    0.24740000  0.16340000  0.22250000 -0.27400000
C        C    0.74740000  0.66339900  0.22250000 -0.27400000
C        C    0.74740000  0.16340000  0.72250000 -0.27400000
C        C    0.24740000  0.66339900  0.72250000 -0.27400000
C        C    0.26370000  0.17239900  0.21620000  0.84800000
C        C    0.76370000  0.67240000  0.21620000  0.84800000
C        C    0.76370000  0.17239900  0.71620100  0.84800000
C        C    0.26370000  0.67240000  0.71620100  0.84800000
C        C    0.32740000  0.20309900  0.14810000 -0.27400000
C        C    0.82740000  0.70310000  0.14810000 -0.27400000
C        C    0.82740000  0.20309900  0.64810000 -0.27400000
C        C    0.32740000  0.70310000  0.64810000 -0.27400000
C        C    0.33850000  0.21890100  0.14490000  0.11000000
C        C    0.83850000  0.71890000  0.14490000  0.11000000
C        C    0.83850000  0.21890100  0.64490000  0.11000000
C        C    0.33850000  0.71890000  0.64490000  0.11000000
C        C    0.35660000  0.21560000  0.13610000 -0.27400000
C        C    0.85660000  0.71560000  0.13610000 -0.27400000
C        C    0.85660000  0.21560000  0.63610000 -0.27400000
C        C    0.35660000  0.71560000  0.63610000 -0.27400000
C        C    0.36160000  0.19710000  0.12980100  0.11000000
C        C    0.86160100  0.69710100  0.12980100  0.11000000
C        C    0.86160100  0.19710000  0.62980000  0.11000000
C        C    0.36160000  0.69710100  0.62980000  0.11000000
C        C    0.34780000  0.18250000  0.13010000 -0.27400000
C        C    0.84780100  0.68249900  0.13010000 -0.27400000
C        C    0.84780100  0.18250000  0.63010000 -0.27400000
C        C    0.34780000  0.68249900  0.63010000 -0.27400000
C        C    0.32970000  0.18729900  0.13620100  0.11000000
C        C    0.82970100  0.68730000  0.13620100  0.11000000
C        C    0.82970100  0.18729900  0.63620000  0.11000000
C        C    0.32970000  0.68730000  0.63620000  0.11000000
C        C    0.35130000  0.16370100  0.12300000  0.84800000
C        C    0.85130000  0.66370000  0.12300000  0.84800000
C        C    0.85130000  0.16370100  0.62299900  0.84800000
C        C    0.35130000  0.66370000  0.62299900  0.84800000
C        C    0.37150000  0.22830000  0.13920000  0.84800000
C        C    0.87150000  0.72830000  0.13920000  0.84800000
C        C    0.87150000  0.22830000  0.63920000  0.84800000
C        C    0.37150000  0.72830000  0.63920000  0.84800000
C        C    0.31270000  0.20240000  0.16140000  0.84800000
C        C    0.81270100  0.70240000  0.16140000  0.84800000
C        C    0.81270100  0.20240000  0.66140000  0.84800000
C        C    0.31270000  0.70240000  0.66140000  0.84800000
C        C    0.37880000  0.23470000  0.21090000 -0.27400000
C        C    0.87880000  0.73470000  0.21090000 -0.27400000
C        C    0.87880000  0.23470000  0.71090100 -0.27400000
C        C    0.37880000  0.73470000  0.71090100 -0.27400000
C        C    0.35660000  0.23240000  0.20930100  0.11000000
C        C    0.85660000  0.73240000  0.20930100  0.11000000
C        C    0.85660000  0.23240000  0.70930000  0.11000000
C        C    0.35660000  0.73240000  0.70930000  0.11000000
C        C    0.44809900  0.25050000  0.13960000  0.84800000
C        C    0.94810000  0.75050000  0.13960000  0.84800000
C        C    0.94810000  0.25050000  0.63960000  0.84800000
C        C    0.44809900  0.75050000  0.63960000  0.84800000
H        H    0.31800800  0.13210800  0.17943300  0.10000000
H        H    0.81800900  0.63210800  0.17943300  0.10000000
H        H    0.81800900  0.13210800  0.67943200  0.10000000
H        H    0.31800800  0.63210800  0.67943200  0.10000000
H        H    0.33332400  0.14904600  0.23306100  0.10000000
H        H    0.83332400  0.64904500  0.23306100  0.10000000
H        H    0.83332400  0.14904600  0.73306100  0.10000000
H        H    0.33332400  0.64904500  0.73306100  0.10000000
H        H    0.14617600  0.18803200  0.10448400  0.10000000
H        H    0.64617700  0.68803100  0.10448400  0.10000000
H        H    0.64617700  0.18803200  0.60448400  0.10000000
H        H    0.14617600  0.68803100  0.60448400  0.10000000
H        H    0.41776800  0.07219600  0.11328600  0.10000000
H        H    0.91776900  0.57219700  0.11328600  0.10000000
H        H    0.91776900  0.07219600  0.61328700  0.10000000
H        H    0.41776800  0.57219700  0.61328700  0.10000000
H        H    0.44518700  0.06037660  0.06001040  0.10000000
H        H    0.94518800  0.56037600  0.06001040  0.10000000
H        H    0.94518800  0.06037660  0.56001100  0.10000000
H        H    0.44518700  0.56037600  0.56001100  0.10000000
H        H    0.37611200  0.05578030  0.12526000  0.10000000
H        H    0.87611300  0.55578000  0.12526000  0.10000000
H        H    0.87611300  0.05578030  0.62526100  0.10000000
H        H    0.37611200  0.55578000  0.62526100  0.10000000
H        H    0.23782800  0.15927000  0.19408200  0.10000000
H        H    0.73782700  0.65927100  0.19408200  0.10000000
H        H    0.73782700  0.15927000  0.69408200  0.10000000
H        H    0.23782800  0.65927100  0.69408200  0.10000000
H        H    0.34916100  0.23992900  0.19914800  0.10000000
H        H    0.84916000  0.73992800  0.19914800  0.10000000
H        H    0.84916000  0.23992900  0.69914700  0.10000000
H        H    0.34916100  0.73992800  0.69914700  0.10000000
Cr       Cr   0.29660000  0.05479960  0.02260040  1.85900000
Cr       Cr   0.79660000  0.55480000  0.02260040  1.85900000
Cr       Cr   0.79660000  0.05479960  0.52260000  1.85900000
Cr       Cr   0.29660000  0.55480000  0.52260000  1.85900000
Cr       Cr   0.40999900  0.01359980  0.11970000  1.85900000
Cr       Cr   0.91000000  0.51360000  0.11970000  1.85900000
Cr       Cr   0.91000000  0.01359980  0.61970100  1.85900000
Cr       Cr   0.40999900  0.51360000  0.61970100  1.85900000
O        O    0.20629900  0.09570030  0.06710040 -0.73100000
O        O    0.70630000  0.59570000  0.06710040 -0.73100000
O        O    0.70630000  0.09570030  0.56710000 -0.73100000
O        O    0.20629900  0.59570000  0.56710000 -0.73100000
O        O    0.18500100  0.11530000  0.08559960 -0.73100000
O        O    0.68500000  0.61530000  0.08559960 -0.73100000
O        O    0.68500000  0.11530000  0.58560000 -0.73100000
O        O    0.18500100  0.61530000  0.58560000 -0.73100000
O        O    0.33850000  0.09829960  0.12650000 -0.73100000
O        O    0.83850000  0.59830000  0.12650000 -0.73100000
O        O    0.83850000  0.09829960  0.62650000 -0.73100000
O        O    0.33850000  0.59830000  0.62650000 -0.73100000
O        O    0.40130100  0.12840000  0.14990000 -0.73100000
O        O    0.90130000  0.62839900  0.14990000 -0.73100000
O        O    0.90130000  0.12840000  0.64990000 -0.73100000
O        O    0.40130100  0.62839900  0.64990000 -0.73100000
O        O    0.36610000  0.09040030  0.13460000 -0.73100000
O        O    0.86610000  0.59040000  0.13460000 -0.73100000
O        O    0.86610000  0.09040030  0.63460100 -0.73100000
O        O    0.36610000  0.59040000  0.63460100 -0.73100000
O        O    0.26770100  0.07640010  0.05090000 -0.58700000
O        O    0.76770000  0.57639900  0.05090000 -0.58700000
O        O    0.76770000  0.07640010  0.55089900 -0.58700000
O        O    0.26770100  0.57639900  0.55089900 -0.58700000
O        O    0.30190000  0.06139990  0.08910000 -0.58700000
O        O    0.80190000  0.56140100  0.08910000 -0.58700000
O        O    0.80190000  0.06139990  0.58909900 -0.58700000
O        O    0.30190000  0.56140100  0.58909900 -0.58700000
O        O    0.27660000  0.07240040  0.02199970 -0.73100000
O        O    0.77660000  0.57240000  0.02199970 -0.73100000
O        O    0.77660000  0.07240040  0.52200000 -0.73100000
O        O    0.27660000  0.57240000  0.52200000 -0.73100000
O        O    0.73790000  0.47230100  0.03420030 -0.58700000
O        O    0.23790000  0.97230000  0.03420030 -0.58700000
O        O    0.23790000  0.47230100  0.53420000 -0.58700000
O        O    0.73790000  0.97230000  0.53420000 -0.58700000
O        O    0.31979900  0.04619940  0.02470040 -0.73100000
O        O    0.81980000  0.54620000  0.02470040 -0.73100000
O        O    0.81980000  0.04619940  0.52470000 -0.73100000
O        O    0.31979900  0.54620000  0.52470000 -0.73100000
O        O    0.30950000  0.03469960  0.07609970 -0.73100000
O        O    0.80950000  0.53470000  0.07609970 -0.73100000
O        O    0.80950000  0.03469960  0.57610000 -0.73100000
O        O    0.30950000  0.53470000  0.57610000 -0.73100000
O        O    0.94670000  0.49870000  0.09160050 -0.58700000
O        O    0.44670000  0.99870000  0.09160050 -0.58700000
O        O    0.44670000  0.49870000  0.59160000 -0.58700000
O        O    0.94670000  0.99870000  0.59160000 -0.58700000
O        O    0.42970000  0.16980000  0.22260000 -0.58700000
O        O    0.92970000  0.66979900  0.22260000 -0.58700000
O        O    0.92970000  0.16980000  0.72260100 -0.58700000
O        O    0.42970000  0.66979900  0.72260100 -0.58700000
O        O    0.43660000  0.00990046  0.11880000 -0.73100000
O        O    0.93660000  0.50990000  0.11880000 -0.73100000
O        O    0.93660000  0.00990046  0.61879900 -0.73100000
O        O    0.43660000  0.50990000  0.61879900 -0.73100000
O        O    0.42080000  0.14070000  0.21180000 -0.73100000
O        O    0.92080000  0.64070000  0.21180000 -0.73100000
O        O    0.92080000  0.14070000  0.71180000 -0.73100000
O        O    0.42080000  0.64070000  0.71180000 -0.73100000
O        O    0.38659900  0.02499940  0.11840000 -0.73100000
O        O    0.88660000  0.52500000  0.11840000 -0.73100000
O        O    0.88660000  0.02499940  0.61840000 -0.73100000
O        O    0.38659900  0.52500000  0.61840000 -0.73100000
O        O    0.36840100  0.00680057  0.10150000 -0.73100000
O        O    0.86840000  0.50680000  0.10150000 -0.73100000
O        O    0.86840000  0.00680057  0.60150000 -0.73100000
O        O    0.36840100  0.50680000  0.60150000 -0.73100000
C        C    0.41830100  0.15110100  0.17500000  0.11000000
C        C    0.91830000  0.65110000  0.17500000  0.11000000
C        C    0.91830000  0.15110100  0.67499900  0.11000000
C        C    0.41830100  0.65110000  0.67499900  0.11000000
C        C    0.42910000  0.16440000  0.18840000 -0.27400000
C        C    0.92910000  0.66439900  0.18840000 -0.27400000
C        C    0.92910000  0.16440000  0.68840000 -0.27400000
C        C    0.42910000  0.66439900  0.68840000 -0.27400000
C        C    0.42790100  0.15770000  0.20849900  0.84800000
C        C    0.92790000  0.65770000  0.20849900  0.84800000
C        C    0.92790000  0.15770000  0.70850000  0.84800000
C        C    0.42790100  0.65770000  0.70850000  0.84800000
C        C    0.23389900  0.08999980  0.04080070  0.11000000
C        C    0.73390000  0.59000100  0.04080070  0.11000000
C        C    0.73390000  0.08999980  0.54080000  0.11000000
C        C    0.23389900  0.59000100  0.54080000  0.11000000
C        C    0.24740000  0.08659950  0.02749990 -0.27400000
C        C    0.74740000  0.58660000  0.02749990 -0.27400000
C        C    0.74740000  0.08659950  0.52750100 -0.27400000
C        C    0.24740000  0.58660000  0.52750100 -0.27400000
C        C    0.26370000  0.07760020  0.03379980  0.84800000
C        C    0.76370000  0.57760000  0.03379980  0.84800000
C        C    0.76370000  0.07760020  0.53380100  0.84800000
C        C    0.26370000  0.57760000  0.53380100  0.84800000
C        C    0.32740000  0.04690030  0.10190000 -0.27400000
C        C    0.82740000  0.54690000  0.10190000 -0.27400000
C        C    0.82740000  0.04690030  0.60189900 -0.27400000
C        C    0.32740000  0.54690000  0.60189900 -0.27400000
C        C    0.33850000  0.03110040  0.10510000  0.11000000
C        C    0.83850000  0.53110000  0.10510000  0.11000000
C        C    0.83850000  0.03110040  0.60509900  0.11000000
C        C    0.33850000  0.53110000  0.60509900  0.11000000
C        C    0.35660000  0.03440060  0.11390100 -0.27400000
C        C    0.85660000  0.53440000  0.11390100 -0.27400000
C        C    0.85660000  0.03440060  0.61390000 -0.27400000
C        C    0.35660000  0.53440000  0.61390000 -0.27400000
C        C    0.36160000  0.05289980  0.12020000  0.11000000
C        C    0.86160100  0.55290100  0.12020000  0.11000000
C        C    0.86160100  0.05289980  0.62020000  0.11000000
C        C    0.36160000  0.55290100  0.62020000  0.11000000
C        C    0.34780000  0.06749950  0.11990000 -0.27400000
C        C    0.84780100  0.56750000  0.11990000 -0.27400000
C        C    0.84780100  0.06749950  0.61989900 -0.27400000
C        C    0.34780000  0.56750000  0.61989900 -0.27400000
C        C    0.32970000  0.06270020  0.11380000  0.11000000
C        C    0.82970100  0.56269900  0.11380000  0.11000000
C        C    0.82970100  0.06270020  0.61380000  0.11000000
C        C    0.32970000  0.56269900  0.61380000  0.11000000
C        C    0.35130000  0.08630050  0.12700000  0.84800000
C        C    0.85130000  0.58630000  0.12700000  0.84800000
C        C    0.85130000  0.08630050  0.62700000  0.84800000
C        C    0.35130000  0.58630000  0.62700000  0.84800000
C        C    0.37150000  0.02170060  0.11080100  0.84800000
C        C    0.87150000  0.52170000  0.11080100  0.84800000
C        C    0.87150000  0.02170060  0.61080000  0.84800000
C        C    0.37150000  0.52170000  0.61080000  0.84800000
C        C    0.31270000  0.04759980  0.08859940  0.84800000
C        C    0.81270100  0.54760100  0.08859940  0.84800000
C        C    0.81270100  0.04759980  0.58860000  0.84800000
C        C    0.31270000  0.54760100  0.58860000  0.84800000
C        C    0.37880000  0.01530060  0.03909980 -0.27400000
C        C    0.87880000  0.51530000  0.03909980 -0.27400000
C        C    0.87880000  0.01530060  0.53910100 -0.27400000
C        C    0.37880000  0.51530000  0.53910100 -0.27400000
C        C    0.35660000  0.01759940  0.04070050  0.11000000
C        C    0.85660000  0.51760000  0.04070050  0.11000000
C        C    0.85660000  0.01759940  0.54070000  0.11000000
C        C    0.35660000  0.51760000  0.54070000  0.11000000
C        C    0.94810000  0.49950000  0.11040000  0.84800000
C        C    0.44809900  0.99949900  0.11040000  0.84800000
C        C    0.44809900  0.49950000  0.61039900  0.84800000
C        C    0.94810000  0.99949900  0.61039900  0.84800000
H        H    0.31800800  0.11789200  0.07056650  0.10000000
H        H    0.81800900  0.61789300  0.07056650  0.10000000
H        H    0.81800900  0.11789200  0.57056700  0.10000000
H        H    0.31800800  0.61789300  0.57056700  0.10000000
H        H    0.33332400  0.10095500  0.01693970  0.10000000
H        H    0.83332400  0.60095400  0.01693970  0.10000000
H        H    0.83332400  0.10095500  0.51693900  0.10000000
H        H    0.33332400  0.60095400  0.51693900  0.10000000
H        H    0.14617600  0.06196770  0.14551700  0.10000000
H        H    0.64617700  0.56196800  0.14551700  0.10000000
H        H    0.64617700  0.06196770  0.64551600  0.10000000
H        H    0.14617600  0.56196800  0.64551600  0.10000000
H        H    0.41776800  0.17780400  0.13671400  0.10000000
H        H    0.91776900  0.67780400  0.13671400  0.10000000
H        H    0.91776900  0.17780400  0.63671400  0.10000000
H        H    0.41776800  0.67780400  0.63671400  0.10000000
H        H    0.37611200  0.19422100  0.12473900  0.10000000
H        H    0.87611300  0.69422000  0.12473900  0.10000000
H        H    0.87611300  0.19422100  0.62474000  0.10000000
H        H    0.37611200  0.69422000  0.62474000  0.10000000
H        H    0.23782800  0.09072950  0.05591740  0.10000000
H        H    0.73782700  0.59073000  0.05591740  0.10000000
H        H    0.73782700  0.09072950  0.55591800  0.10000000
H        H    0.23782800  0.59073000  0.55591800  0.10000000
H        H    0.34916100  0.01007190  0.05085200  0.10000000
H        H    0.84916000  0.51007100  0.05085200  0.10000000
H        H    0.84916000  0.01007190  0.55085300  0.10000000
H        H    0.34916100  0.51007100  0.55085300  0.10000000
Cr       Cr   0.95340000  0.19520000  0.02260040  1.85900000
Cr       Cr   0.45339900  0.69519900  0.02260040  1.85900000
Cr       Cr   0.45339900  0.19520000  0.52260000  1.85900000
Cr       Cr   0.95340000  0.69519900  0.52260000  1.85900000
Cr       Cr   0.84000000  0.23640000  0.11970000  1.85900000
Cr       Cr   0.33999900  0.73640100  0.11970000  1.85900000
Cr       Cr   0.33999900  0.23640000  0.61970100  1.85900000
Cr       Cr   0.84000000  0.73640100  0.61970100  1.85900000
O        O    0.04370030  0.15429900  0.06710040 -0.73100000
O        O    0.54370000  0.65430000  0.06710040 -0.73100000
O        O    0.54370000  0.15429900  0.56710000 -0.73100000
O        O    0.04370030  0.65430000  0.56710000 -0.73100000
O        O    0.06500040  0.13470000  0.08559960 -0.73100000
O        O    0.56500000  0.63469900  0.08559960 -0.73100000
O        O    0.56500000  0.13470000  0.58560000 -0.73100000
O        O    0.06500040  0.63469900  0.58560000 -0.73100000
O        O    0.91149900  0.15170000  0.12650000 -0.73100000
O        O    0.41150000  0.65169900  0.12650000 -0.73100000
O        O    0.41150000  0.15170000  0.62650000 -0.73100000
O        O    0.91149900  0.65169900  0.62650000 -0.73100000
O        O    0.84870000  0.12160000  0.14990000 -0.58700000
O        O    0.34870000  0.62160000  0.14990000 -0.58700000
O        O    0.34870000  0.12160000  0.64990000 -0.58700000
O        O    0.84870000  0.62160000  0.64990000 -0.58700000
O        O    0.88389900  0.15959900  0.13460000 -0.58700000
O        O    0.38390000  0.65960000  0.13460000 -0.58700000
O        O    0.38390000  0.15959900  0.63460100 -0.58700000
O        O    0.88389900  0.65960000  0.63460100 -0.58700000
O        O    0.98230000  0.17360000  0.05090000 -0.73100000
O        O    0.48230000  0.67360000  0.05090000 -0.73100000
O        O    0.48230000  0.17360000  0.55089900 -0.73100000
O        O    0.98230000  0.67360000  0.55089900 -0.73100000
O        O    0.94810000  0.18860000  0.08910000 -0.73100000
O        O    0.44809900  0.68860000  0.08910000 -0.73100000
O        O    0.44809900  0.18860000  0.58909900 -0.73100000
O        O    0.94810000  0.68860000  0.58909900 -0.73100000
O        O    0.97340000  0.17760100  0.02199970 -0.73100000
O        O    0.47340100  0.67760000  0.02199970 -0.73100000
O        O    0.47340100  0.17760100  0.52200000 -0.73100000
O        O    0.97340000  0.67760000  0.52200000 -0.73100000
O        O    0.01210060  0.27770000  0.03420030 -0.73100000
O        O    0.51210000  0.77770100  0.03420030 -0.73100000
O        O    0.51210000  0.27770000  0.53420000 -0.73100000
O        O    0.01210060  0.77770100  0.53420000 -0.73100000
O        O    0.93020000  0.20380000  0.02470040 -0.73100000
O        O    0.43020000  0.70380000  0.02470040 -0.73100000
O        O    0.43020000  0.20380000  0.52470000 -0.73100000
O        O    0.93020000  0.70380000  0.52470000 -0.73100000
O        O    0.94050000  0.21530000  0.07609970 -0.58700000
O        O    0.44050100  0.71529900  0.07609970 -0.58700000
O        O    0.44050100  0.21530000  0.57610000 -0.58700000
O        O    0.94050000  0.71529900  0.57610000 -0.58700000
O        O    0.80330100  0.25130000  0.09160050 -0.58700000
O        O    0.30330000  0.75130100  0.09160050 -0.58700000
O        O    0.30330000  0.25130000  0.59160000 -0.58700000
O        O    0.80330100  0.75130100  0.59160000 -0.58700000
O        O    0.82029900  0.08019950  0.22260000 -0.58700000
O        O    0.32030000  0.58020000  0.22260000 -0.58700000
O        O    0.32030000  0.08019950  0.72260100 -0.58700000
O        O    0.82029900  0.58020000  0.72260100 -0.58700000
O        O    0.81340000  0.24010100  0.11880000 -0.73100000
O        O    0.31339900  0.74010000  0.11880000 -0.73100000
O        O    0.31339900  0.24010100  0.61879900 -0.73100000
O        O    0.81340000  0.74010000  0.61879900 -0.73100000
O        O    0.82920000  0.10930000  0.21180000 -0.73100000
O        O    0.32920100  0.60929900  0.21180000 -0.73100000
O        O    0.32920100  0.10930000  0.71180000 -0.73100000
O        O    0.82920000  0.60929900  0.71180000 -0.73100000
O        O    0.86340000  0.22500000  0.11840000 -0.73100000
O        O    0.36340000  0.72500000  0.11840000 -0.73100000
O        O    0.36340000  0.22500000  0.61840000 -0.73100000
O        O    0.86340000  0.72500000  0.61840000 -0.73100000
O        O    0.88160000  0.24320000  0.10150000 -0.73100000
O        O    0.38160000  0.74320000  0.10150000 -0.73100000
O        O    0.38160000  0.24320000  0.60150000 -0.73100000
O        O    0.88160000  0.74320000  0.60150000 -0.73100000
C        C    0.83170000  0.09890040  0.17500000  0.11000000
C        C    0.33170000  0.59890000  0.17500000  0.11000000
C        C    0.33170000  0.09890040  0.67499900  0.11000000
C        C    0.83170000  0.59890000  0.67499900  0.11000000
C        C    0.82090000  0.08559960  0.18840000 -0.27400000
C        C    0.32089900  0.58560000  0.18840000 -0.27400000
C        C    0.32089900  0.08559960  0.68840000 -0.27400000
C        C    0.82090000  0.58560000  0.68840000 -0.27400000
C        C    0.82210000  0.09230010  0.20849900  0.84800000
C        C    0.32210000  0.59229900  0.20849900  0.84800000
C        C    0.32210000  0.09230010  0.70850000  0.84800000
C        C    0.82210000  0.59229900  0.70850000  0.84800000
C        C    0.01610030  0.16000000  0.04080070  0.11000000
C        C    0.51610000  0.66000100  0.04080070  0.11000000
C        C    0.51610000  0.16000000  0.54080000  0.11000000
C        C    0.01610030  0.66000100  0.54080000  0.11000000
C        C    0.00260062  0.16340000  0.02749990 -0.27400000
C        C    0.50260000  0.66339900  0.02749990 -0.27400000
C        C    0.50260000  0.16340000  0.52750100 -0.27400000
C        C    0.00260062  0.66339900  0.52750100 -0.27400000
C        C    0.98630000  0.17239900  0.03379980  0.84800000
C        C    0.48629900  0.67240000  0.03379980  0.84800000
C        C    0.48629900  0.17239900  0.53380100  0.84800000
C        C    0.98630000  0.67240000  0.53380100  0.84800000
C        C    0.92260000  0.20309900  0.10190000 -0.27400000
C        C    0.42259900  0.70310000  0.10190000 -0.27400000
C        C    0.42259900  0.20309900  0.60189900 -0.27400000
C        C    0.92260000  0.70310000  0.60189900 -0.27400000
C        C    0.91149900  0.21890100  0.10510000  0.11000000
C        C    0.41150000  0.71890000  0.10510000  0.11000000
C        C    0.41150000  0.21890100  0.60509900  0.11000000
C        C    0.91149900  0.71890000  0.60509900  0.11000000
C        C    0.89340100  0.21560000  0.11390100 -0.27400000
C        C    0.39340000  0.71560000  0.11390100 -0.27400000
C        C    0.39340000  0.21560000  0.61390000 -0.27400000
C        C    0.89340100  0.71560000  0.61390000 -0.27400000
C        C    0.88840000  0.19710000  0.12020000  0.11000000
C        C    0.38840000  0.69710100  0.12020000  0.11000000
C        C    0.38840000  0.19710000  0.62020000  0.11000000
C        C    0.88840000  0.69710100  0.62020000  0.11000000
C        C    0.90220000  0.18250000  0.11990000 -0.27400000
C        C    0.40220000  0.68249900  0.11990000 -0.27400000
C        C    0.40220000  0.18250000  0.61989900 -0.27400000
C        C    0.90220000  0.68249900  0.61989900 -0.27400000
C        C    0.92030000  0.18729900  0.11380000  0.11000000
C        C    0.42030000  0.68730000  0.11380000  0.11000000
C        C    0.42030000  0.18729900  0.61380000  0.11000000
C        C    0.92030000  0.68730000  0.61380000  0.11000000
C        C    0.89870100  0.16370100  0.12700000  0.84800000
C        C    0.39870000  0.66370000  0.12700000  0.84800000
C        C    0.39870000  0.16370100  0.62700000  0.84800000
C        C    0.89870100  0.66370000  0.62700000  0.84800000
C        C    0.87850100  0.22830000  0.11080100  0.84800000
C        C    0.37850000  0.72830000  0.11080100  0.84800000
C        C    0.37850000  0.22830000  0.61080000  0.84800000
C        C    0.87850100  0.72830000  0.61080000  0.84800000
C        C    0.93730000  0.20240000  0.08859940  0.84800000
C        C    0.43730100  0.70240000  0.08859940  0.84800000
C        C    0.43730100  0.20240000  0.58860000  0.84800000
C        C    0.93730000  0.70240000  0.58860000  0.84800000
C        C    0.87119900  0.23470000  0.03909980 -0.27400000
C        C    0.37120000  0.73470000  0.03909980 -0.27400000
C        C    0.37120000  0.23470000  0.53910100 -0.27400000
C        C    0.87119900  0.73470000  0.53910100 -0.27400000
C        C    0.89340100  0.23240000  0.04070050  0.11000000
C        C    0.39340000  0.73240000  0.04070050  0.11000000
C        C    0.39340000  0.23240000  0.54070000  0.11000000
C        C    0.89340100  0.73240000  0.54070000  0.11000000
C        C    0.80190000  0.25050000  0.11040000  0.84800000
C        C    0.30190000  0.75050000  0.11040000  0.84800000
C        C    0.30190000  0.25050000  0.61039900  0.84800000
C        C    0.80190000  0.75050000  0.61039900  0.84800000
H        H    0.93199200  0.13210800  0.07056650  0.10000000
H        H    0.43199100  0.63210800  0.07056650  0.10000000
H        H    0.43199100  0.13210800  0.57056700  0.10000000
H        H    0.93199200  0.63210800  0.57056700  0.10000000
H        H    0.91667600  0.14904600  0.01693970  0.10000000
H        H    0.41667500  0.64904500  0.01693970  0.10000000
H        H    0.41667500  0.14904600  0.51693900  0.10000000
H        H    0.91667600  0.64904500  0.51693900  0.10000000
H        H    0.83223100  0.07219600  0.13671400  0.10000000
H        H    0.33223200  0.57219700  0.13671400  0.10000000
H        H    0.33223200  0.07219600  0.63671400  0.10000000
H        H    0.83223100  0.57219700  0.63671400  0.10000000
H        H    0.87388800  0.05578030  0.12473900  0.10000000
H        H    0.37388800  0.55578000  0.12473900  0.10000000
H        H    0.37388800  0.05578030  0.62474000  0.10000000
H        H    0.87388800  0.55578000  0.62474000  0.10000000
H        H    0.01217330  0.15927000  0.05591740  0.10000000
H        H    0.51217300  0.65927100  0.05591740  0.10000000
H        H    0.51217300  0.15927000  0.55591800  0.10000000
H        H    0.01217330  0.65927100  0.55591800  0.10000000
H        H    0.90083900  0.23992900  0.05085200  0.10000000
H        H    0.40084000  0.73992800  0.05085200  0.10000000
H        H    0.40084000  0.23992900  0.55085300  0.10000000
H        H    0.90083900  0.73992800  0.55085300  0.10000000
Cr       Cr   0.95340000  0.05479960  0.22740100  1.85900000
Cr       Cr   0.45339900  0.55480000  0.22740100  1.85900000
Cr       Cr   0.45339900  0.05479960  0.72740000  1.85900000
Cr       Cr   0.95340000  0.55480000  0.72740000  1.85900000
Cr       Cr   0.84000000  0.01359980  0.13030000  1.85900000
Cr       Cr   0.33999900  0.51360000  0.13030000  1.85900000
Cr       Cr   0.33999900  0.01359980  0.63030100  1.85900000
Cr       Cr   0.84000000  0.51360000  0.63030100  1.85900000
O        O    0.04370030  0.09570030  0.18290100 -0.73100000
O        O    0.54370000  0.59570000  0.18290100 -0.73100000
O        O    0.54370000  0.09570030  0.68290000 -0.73100000
O        O    0.04370030  0.59570000  0.68290000 -0.73100000
O        O    0.06500040  0.11530000  0.16440000 -0.73100000
O        O    0.56500000  0.61530000  0.16440000 -0.73100000
O        O    0.56500000  0.11530000  0.66439900 -0.73100000
O        O    0.06500040  0.61530000  0.66439900 -0.73100000
O        O    0.91149900  0.09829960  0.12350100 -0.73100000
O        O    0.41150000  0.59830000  0.12350100 -0.73100000
O        O    0.41150000  0.09829960  0.62350000 -0.73100000
O        O    0.91149900  0.59830000  0.62350000 -0.73100000
O        O    0.84870000  0.12840000  0.10010100 -0.73100000
O        O    0.34870000  0.62839900  0.10010100 -0.73100000
O        O    0.34870000  0.12840000  0.60010000 -0.73100000
O        O    0.84870000  0.62839900  0.60010000 -0.73100000
O        O    0.88389900  0.09040030  0.11540000 -0.73100000
O        O    0.38390000  0.59040000  0.11540000 -0.73100000
O        O    0.38390000  0.09040030  0.61540000 -0.73100000
O        O    0.88389900  0.59040000  0.61540000 -0.73100000
O        O    0.98230000  0.07640010  0.19910000 -0.58700000
O        O    0.48230000  0.57639900  0.19910000 -0.58700000
O        O    0.48230000  0.07640010  0.69910000 -0.58700000
O        O    0.98230000  0.57639900  0.69910000 -0.58700000
O        O    0.94810000  0.06139990  0.16090000 -0.58700000
O        O    0.44809900  0.56140100  0.16090000 -0.58700000
O        O    0.44809900  0.06139990  0.66090000 -0.58700000
O        O    0.94810000  0.56140100  0.66090000 -0.58700000
O        O    0.97340000  0.07240040  0.22800000 -0.73100000
O        O    0.47340100  0.57240000  0.22800000 -0.73100000
O        O    0.47340100  0.07240040  0.72800100 -0.73100000
O        O    0.97340000  0.57240000  0.72800100 -0.73100000
O        O    0.51210000  0.47230100  0.21579900 -0.73100000
O        O    0.01210060  0.97230000  0.21579900 -0.73100000
O        O    0.01210060  0.47230100  0.71580000 -0.73100000
O        O    0.51210000  0.97230000  0.71580000 -0.73100000
O        O    0.93020000  0.04619940  0.22530100 -0.73100000
O        O    0.43020000  0.54620000  0.22530100 -0.73100000
O        O    0.43020000  0.04619940  0.72530000 -0.73100000
O        O    0.93020000  0.54620000  0.72530000 -0.73100000
O        O    0.94050000  0.03469960  0.17390000 -0.73100000
O        O    0.44050100  0.53470000  0.17390000 -0.73100000
O        O    0.44050100  0.03469960  0.67390100 -0.73100000
O        O    0.94050000  0.53470000  0.67390100 -0.73100000
O        O    0.30330000  0.49870000  0.15840100 -0.73100000
O        O    0.80330100  0.99870000  0.15840100 -0.73100000
O        O    0.80330100  0.49870000  0.65840000 -0.73100000
O        O    0.30330000  0.99870000  0.65840000 -0.73100000
O        O    0.82029900  0.16980000  0.02739980 -0.73100000
O        O    0.32030000  0.66979900  0.02739980 -0.73100000
O        O    0.32030000  0.16980000  0.52740000 -0.73100000
O        O    0.82029900  0.66979900  0.52740000 -0.73100000
O        O    0.81340000  0.00990046  0.13120000 -0.73100000
O        O    0.31339900  0.50990000  0.13120000 -0.73100000
O        O    0.31339900  0.00990046  0.63120000 -0.73100000
O        O    0.81340000  0.50990000  0.63120000 -0.73100000
O        O    0.82920000  0.14070000  0.03820000 -0.73100000
O        O    0.32920100  0.64070000  0.03820000 -0.73100000
O        O    0.32920100  0.14070000  0.53819900 -0.73100000
O        O    0.82920000  0.64070000  0.53819900 -0.73100000
O        O    0.86340000  0.02499940  0.13160000 -0.73100000
O        O    0.36340000  0.52500000  0.13160000 -0.73100000
O        O    0.36340000  0.02499940  0.63159900 -0.73100000
O        O    0.86340000  0.52500000  0.63159900 -0.73100000
O        O    0.88160000  0.00680057  0.14850000 -0.58700000
O        O    0.38160000  0.50680000  0.14850000 -0.58700000
O        O    0.38160000  0.00680057  0.64849900 -0.58700000
O        O    0.88160000  0.50680000  0.64849900 -0.58700000
C        C    0.83170000  0.15110100  0.07499960  0.11000000
C        C    0.33170000  0.65110000  0.07499960  0.11000000
C        C    0.33170000  0.15110100  0.57500000  0.11000000
C        C    0.83170000  0.65110000  0.57500000  0.11000000
C        C    0.82090000  0.16440000  0.06160010 -0.27400000
C        C    0.32089900  0.66439900  0.06160010 -0.27400000
C        C    0.32089900  0.16440000  0.56159900 -0.27400000
C        C    0.82090000  0.66439900  0.56159900 -0.27400000
C        C    0.82210000  0.15770000  0.04150020  0.84800000
C        C    0.32210000  0.65770000  0.04150020  0.84800000
C        C    0.32210000  0.15770000  0.54149900  0.84800000
C        C    0.82210000  0.65770000  0.54149900  0.84800000
C        C    0.01610030  0.08999980  0.20920000  0.11000000
C        C    0.51610000  0.59000100  0.20920000  0.11000000
C        C    0.51610000  0.08999980  0.70920000  0.11000000
C        C    0.01610030  0.59000100  0.70920000  0.11000000
C        C    0.00260062  0.08659950  0.22250000 -0.27400000
C        C    0.50260000  0.58660000  0.22250000 -0.27400000
C        C    0.50260000  0.08659950  0.72250000 -0.27400000
C        C    0.00260062  0.58660000  0.72250000 -0.27400000
C        C    0.98630000  0.07760020  0.21620000  0.84800000
C        C    0.48629900  0.57760000  0.21620000  0.84800000
C        C    0.48629900  0.07760020  0.71620100  0.84800000
C        C    0.98630000  0.57760000  0.71620100  0.84800000
C        C    0.92260000  0.04690030  0.14810000 -0.27400000
C        C    0.42259900  0.54690000  0.14810000 -0.27400000
C        C    0.42259900  0.04690030  0.64810000 -0.27400000
C        C    0.92260000  0.54690000  0.64810000 -0.27400000
C        C    0.91149900  0.03110040  0.14490000  0.11000000
C        C    0.41150000  0.53110000  0.14490000  0.11000000
C        C    0.41150000  0.03110040  0.64490000  0.11000000
C        C    0.91149900  0.53110000  0.64490000  0.11000000
C        C    0.89340100  0.03440060  0.13610000 -0.27400000
C        C    0.39340000  0.53440000  0.13610000 -0.27400000
C        C    0.39340000  0.03440060  0.63610000 -0.27400000
C        C    0.89340100  0.53440000  0.63610000 -0.27400000
C        C    0.88840000  0.05289980  0.12980100  0.11000000
C        C    0.38840000  0.55290100  0.12980100  0.11000000
C        C    0.38840000  0.05289980  0.62980000  0.11000000
C        C    0.88840000  0.55290100  0.62980000  0.11000000
C        C    0.90220000  0.06749950  0.13010000 -0.27400000
C        C    0.40220000  0.56750000  0.13010000 -0.27400000
C        C    0.40220000  0.06749950  0.63010000 -0.27400000
C        C    0.90220000  0.56750000  0.63010000 -0.27400000
C        C    0.92030000  0.06270020  0.13620100  0.11000000
C        C    0.42030000  0.56269900  0.13620100  0.11000000
C        C    0.42030000  0.06270020  0.63620000  0.11000000
C        C    0.92030000  0.56269900  0.63620000  0.11000000
C        C    0.89870100  0.08630050  0.12300000  0.84800000
C        C    0.39870000  0.58630000  0.12300000  0.84800000
C        C    0.39870000  0.08630050  0.62299900  0.84800000
C        C    0.89870100  0.58630000  0.62299900  0.84800000
C        C    0.87850100  0.02170060  0.13920000  0.84800000
C        C    0.37850000  0.52170000  0.13920000  0.84800000
C        C    0.37850000  0.02170060  0.63920000  0.84800000
C        C    0.87850100  0.52170000  0.63920000  0.84800000
C        C    0.93730000  0.04759980  0.16140000  0.84800000
C        C    0.43730100  0.54760100  0.16140000  0.84800000
C        C    0.43730100  0.04759980  0.66140000  0.84800000
C        C    0.93730000  0.54760100  0.66140000  0.84800000
C        C    0.87119900  0.01530060  0.21090000 -0.27400000
C        C    0.37120000  0.51530000  0.21090000 -0.27400000
C        C    0.37120000  0.01530060  0.71090100 -0.27400000
C        C    0.87119900  0.51530000  0.71090100 -0.27400000
C        C    0.89340100  0.01759940  0.20930100  0.11000000
C        C    0.39340000  0.51760000  0.20930100  0.11000000
C        C    0.39340000  0.01759940  0.70930000  0.11000000
C        C    0.89340100  0.51760000  0.70930000  0.11000000
C        C    0.30190000  0.49950000  0.13960000  0.84800000
C        C    0.80190000  0.99949900  0.13960000  0.84800000
C        C    0.80190000  0.49950000  0.63960000  0.84800000
C        C    0.30190000  0.99949900  0.63960000  0.84800000
H        H    0.93199200  0.11789200  0.17943300  0.10000000
H        H    0.43199100  0.61789300  0.17943300  0.10000000
H        H    0.43199100  0.11789200  0.67943200  0.10000000
H        H    0.93199200  0.61789300  0.67943200  0.10000000
H        H    0.91667600  0.10095500  0.23306100  0.10000000
H        H    0.41667500  0.60095400  0.23306100  0.10000000
H        H    0.41667500  0.10095500  0.73306100  0.10000000
H        H    0.91667600  0.60095400  0.73306100  0.10000000
H        H    0.83223100  0.17780400  0.11328600  0.10000000
H        H    0.33223200  0.67780400  0.11328600  0.10000000
H        H    0.33223200  0.17780400  0.61328700  0.10000000
H        H    0.83223100  0.67780400  0.61328700  0.10000000
H        H    0.87388800  0.19422100  0.12526000  0.10000000
H        H    0.37388800  0.69422000  0.12526000  0.10000000
H        H    0.37388800  0.19422100  0.62526100  0.10000000
H        H    0.87388800  0.69422000  0.62526100  0.10000000
H        H    0.01217330  0.09072950  0.19408200  0.10000000
H        H    0.51217300  0.59073000  0.19408200  0.10000000
H        H    0.51217300  0.09072950  0.69408200  0.10000000
H        H    0.01217330  0.59073000  0.69408200  0.10000000
H        H    0.90083900  0.01007190  0.19914800  0.10000000
H        H    0.40084000  0.51007100  0.19914800  0.10000000
H        H    0.40084000  0.01007190  0.69914700  0.10000000
H        H    0.90083900  0.51007100  0.69914700  0.10000000
Cr       Cr   0.16010000  0.08989970  0.05689950  1.85900000
Cr       Cr   0.66010100  0.58990000  0.05689950  1.85900000
Cr       Cr   0.66010100  0.08989970  0.55690000  1.85900000
Cr       Cr   0.16010000  0.58990000  0.55690000  1.85900000
Cr       Cr   0.68200000  0.06800020  0.46340000  1.85900000
Cr       Cr   0.18199900  0.56799900  0.46340000  1.85900000
Cr       Cr   0.18199900  0.06800020  0.96340100  1.85900000
Cr       Cr   0.68200000  0.56799900  0.96340100  1.85900000
O        O    0.54940000  0.20060000  0.45500000 -1.28000000
O        O    0.04939940  0.70060000  0.45500000 -1.28000000
O        O    0.04939940  0.20060000  0.95499900 -1.28000000
O        O    0.54940000  0.70060000  0.95499900 -1.28000000
C        C    0.59245000  0.15755000  0.34190100 -0.27400000
C        C    0.09244960  0.65754900  0.34190100 -0.27400000
C        C    0.09244960  0.15755000  0.84190000 -0.27400000
C        C    0.59245000  0.65754900  0.84190000 -0.27400000
C        C    0.56810000  0.18189900  0.31430100  0.11000000
C        C    0.06810030  0.68190000  0.31430100  0.11000000
C        C    0.06810030  0.18189900  0.81430000  0.11000000
C        C    0.56810000  0.68190000  0.81430000  0.11000000
C        C    0.60499900  0.14500000  0.34910000  0.84800000
C        C    0.10500000  0.64500000  0.34910000  0.84800000
C        C    0.10500000  0.14500000  0.84910000  0.84800000
C        C    0.60499900  0.64500000  0.84910000  0.84800000
C        C    0.71959900  0.03039950  0.36140000  0.11000000
C        C    0.21960000  0.53040000  0.36140000  0.11000000
C        C    0.21960000  0.03039950  0.86140000  0.11000000
C        C    0.71959900  0.53040000  0.86140000  0.11000000
C        C    0.72080000  0.02919940  0.40349900 -0.27400000
C        C    0.22080000  0.52920000  0.40349900 -0.27400000
C        C    0.22080000  0.02919940  0.90350000 -0.27400000
C        C    0.72080000  0.52920000  0.90350000 -0.27400000
C        C    0.71749900  0.03249950  0.42250100  0.84800000
C        C    0.21750000  0.53250000  0.42250100  0.84800000
C        C    0.21750000  0.03249950  0.92250000  0.84800000
C        C    0.71749900  0.53250000  0.92250000  0.84800000
Cr       Cr   0.08989970  0.16010000  0.05689950  1.85900000
Cr       Cr   0.58990000  0.66010100  0.05689950  1.85900000
Cr       Cr   0.58990000  0.16010000  0.55690000  1.85900000
Cr       Cr   0.08989970  0.66010100  0.55690000  1.85900000
Cr       Cr   0.56799900  0.18199900  0.46340000  1.62000000
Cr       Cr   0.06800020  0.68200000  0.46340000  1.62000000
Cr       Cr   0.06800020  0.18199900  0.96340100  1.62000000
Cr       Cr   0.56799900  0.68200000  0.96340100  1.62000000
O        O    0.70060000  0.04939940  0.45500000 -1.28000000
O        O    0.20060000  0.54940000  0.45500000 -1.28000000
O        O    0.20060000  0.04939940  0.95499900 -1.28000000
O        O    0.70060000  0.54940000  0.95499900 -1.28000000
F        F    0.58340000  0.16660000  0.47930000 -0.56600000
F        F    0.08339950  0.66659900  0.47930000 -0.56600000
F        F    0.08339950  0.16660000  0.97930100 -0.56600000
F        F    0.58340000  0.66659900  0.97930100 -0.56600000
C        C    0.65754900  0.09244960  0.34190100 -0.27400000
C        C    0.15755000  0.59245000  0.34190100 -0.27400000
C        C    0.15755000  0.09244960  0.84190000 -0.27400000
C        C    0.65754900  0.59245000  0.84190000 -0.27400000
C        C    0.68190000  0.06810030  0.31430100  0.11000000
C        C    0.18189900  0.56810000  0.31430100  0.11000000
C        C    0.18189900  0.06810030  0.81430000  0.11000000
C        C    0.68190000  0.56810000  0.81430000  0.11000000
C        C    0.64500000  0.10500000  0.34910000  0.84800000
C        C    0.14500000  0.60499900  0.34910000  0.84800000
C        C    0.14500000  0.10500000  0.84910000  0.84800000
C        C    0.64500000  0.60499900  0.84910000  0.84800000
C        C    0.53040000  0.21960000  0.36140000  0.11000000
C        C    0.03039950  0.71959900  0.36140000  0.11000000
C        C    0.03039950  0.21960000  0.86140000  0.11000000
C        C    0.53040000  0.71959900  0.86140000  0.11000000
C        C    0.52920000  0.22080000  0.40349900 -0.27400000
C        C    0.02919940  0.72080000  0.40349900 -0.27400000
C        C    0.02919940  0.22080000  0.90350000 -0.27400000
C        C    0.52920000  0.72080000  0.90350000 -0.27400000
C        C    0.53250000  0.21750000  0.42250100  0.84800000
C        C    0.03249950  0.71749900  0.42250100  0.84800000
C        C    0.03249950  0.21750000  0.92250000  0.84800000
C        C    0.53250000  0.71749900  0.92250000  0.84800000
Cr       Cr   0.08989970  0.08989970  0.19310000  1.85900000
Cr       Cr   0.58990000  0.58990000  0.19310000  1.85900000
Cr       Cr   0.58990000  0.08989970  0.69309900  1.85900000
Cr       Cr   0.08989970  0.58990000  0.69309900  1.85900000
Cr       Cr   0.06800020  0.06800020  0.28660000  1.62000000
Cr       Cr   0.56799900  0.56799900  0.28660000  1.62000000
Cr       Cr   0.56799900  0.06800020  0.78660000  1.62000000
Cr       Cr   0.06800020  0.56799900  0.78660000  1.62000000
O        O    0.20060000  0.20060000  0.29500000 -1.28000000
O        O    0.70060000  0.70060000  0.29500000 -1.28000000
O        O    0.70060000  0.20060000  0.79500000 -1.28000000
O        O    0.20060000  0.70060000  0.79500000 -1.28000000
F        F    0.08339950  0.08339950  0.27070000 -0.56600000
F        F    0.58340000  0.58340000  0.27070000 -0.56600000
F        F    0.58340000  0.08339950  0.77070000 -0.56600000
F        F    0.08339950  0.58340000  0.77070000 -0.56600000
C        C    0.15755000  0.15755000  0.40810000 -0.27400000
C        C    0.65754900  0.65754900  0.40810000 -0.27400000
C        C    0.65754900  0.15755000  0.90810000 -0.27400000
C        C    0.15755000  0.65754900  0.90810000 -0.27400000
C        C    0.18189900  0.18189900  0.43570000  0.11000000
C        C    0.68190000  0.68190000  0.43570000  0.11000000
C        C    0.68190000  0.18189900  0.93570100  0.11000000
C        C    0.18189900  0.68190000  0.93570100  0.11000000
C        C    0.14500000  0.14500000  0.40090000  0.84800000
C        C    0.64500000  0.64500000  0.40090000  0.84800000
C        C    0.64500000  0.14500000  0.90089900  0.84800000
C        C    0.14500000  0.64500000  0.90089900  0.84800000
C        C    0.03039950  0.03039950  0.38860100  0.11000000
C        C    0.53040000  0.53040000  0.38860100  0.11000000
C        C    0.53040000  0.03039950  0.88860000  0.11000000
C        C    0.03039950  0.53040000  0.88860000  0.11000000
C        C    0.02919940  0.02919940  0.34650000 -0.27400000
C        C    0.52920000  0.52920000  0.34650000 -0.27400000
C        C    0.52920000  0.02919940  0.84650000 -0.27400000
C        C    0.02919940  0.52920000  0.84650000 -0.27400000
C        C    0.03249950  0.03249950  0.32750000  0.84800000
C        C    0.53250000  0.53250000  0.32750000  0.84800000
C        C    0.53250000  0.03249950  0.82750000  0.84800000
C        C    0.03249950  0.53250000  0.82750000  0.84800000
Cr       Cr   0.16010000  0.16010000  0.19310000  1.62000000
Cr       Cr   0.66010100  0.66010100  0.19310000  1.62000000
Cr       Cr   0.66010100  0.16010000  0.69309900  1.62000000
Cr       Cr   0.16010000  0.66010100  0.69309900  1.62000000
Cr       Cr   0.18199900  0.18199900  0.28660000  1.85900000
Cr       Cr   0.68200000  0.68200000  0.28660000  1.85900000
Cr       Cr   0.68200000  0.18199900  0.78660000  1.85900000
Cr       Cr   0.18199900  0.68200000  0.78660000  1.85900000
O        O    0.04939940  0.04939940  0.29500000 -1.28000000
O        O    0.54940000  0.54940000  0.29500000 -1.28000000
O        O    0.54940000  0.04939940  0.79500000 -1.28000000
O        O    0.04939940  0.54940000  0.79500000 -1.28000000
F        F    0.14640000  0.14640000  0.21159900 -0.56600000
F        F    0.64639900  0.64639900  0.21159900 -0.56600000
F        F    0.64639900  0.14640000  0.71160000 -0.56600000
F        F    0.14640000  0.64639900  0.71160000 -0.56600000
C        C    0.09244960  0.09244960  0.40810000 -0.27400000
C        C    0.59245000  0.59245000  0.40810000 -0.27400000
C        C    0.59245000  0.09244960  0.90810000 -0.27400000
C        C    0.09244960  0.59245000  0.90810000 -0.27400000
C        C    0.06810030  0.06810030  0.43570000  0.11000000
C        C    0.56810000  0.56810000  0.43570000  0.11000000
C        C    0.56810000  0.06810030  0.93570100  0.11000000
C        C    0.06810030  0.56810000  0.93570100  0.11000000
C        C    0.10500000  0.10500000  0.40090000  0.84800000
C        C    0.60499900  0.60499900  0.40090000  0.84800000
C        C    0.60499900  0.10500000  0.90089900  0.84800000
C        C    0.10500000  0.60499900  0.90089900  0.84800000
C        C    0.21960000  0.21960000  0.38860100  0.11000000
C        C    0.71959900  0.71959900  0.38860100  0.11000000
C        C    0.71959900  0.21960000  0.88860000  0.11000000
C        C    0.21960000  0.71959900  0.88860000  0.11000000
C        C    0.22080000  0.22080000  0.34650000 -0.27400000
C        C    0.72080000  0.72080000  0.34650000 -0.27400000
C        C    0.72080000  0.22080000  0.84650000 -0.27400000
C        C    0.22080000  0.72080000  0.84650000 -0.27400000
C        C    0.21750000  0.21750000  0.32750000  0.84800000
C        C    0.71749900  0.71749900  0.32750000  0.84800000
C        C    0.71749900  0.21750000  0.82750000  0.84800000
C        C    0.21750000  0.71749900  0.82750000  0.84800000
Cr       Cr   0.05689950  0.16010000  0.08989970  1.85900000
Cr       Cr   0.55690000  0.66010100  0.08989970  1.85900000
Cr       Cr   0.55690000  0.16010000  0.58990000  1.85900000
Cr       Cr   0.05689950  0.66010100  0.58990000  1.85900000
Cr       Cr   0.96340100  0.18199900  0.06800020  1.85900000
Cr       Cr   0.46340000  0.68200000  0.06800020  1.85900000
Cr       Cr   0.46340000  0.18199900  0.56799900  1.85900000
Cr       Cr   0.96340100  0.68200000  0.56799900  1.85900000
O        O    0.95499900  0.04939940  0.20060000 -1.28000000
O        O    0.45500000  0.54940000  0.20060000 -1.28000000
O        O    0.45500000  0.04939940  0.70060000 -1.28000000
O        O    0.95499900  0.54940000  0.70060000 -1.28000000
C        C    0.84190000  0.09244960  0.15755000 -0.27400000
C        C    0.34190100  0.59245000  0.15755000 -0.27400000
C        C    0.34190100  0.09244960  0.65754900 -0.27400000
C        C    0.84190000  0.59245000  0.65754900 -0.27400000
C        C    0.81430000  0.06810030  0.18189900  0.11000000
C        C    0.31430100  0.56810000  0.18189900  0.11000000
C        C    0.31430100  0.06810030  0.68190000  0.11000000
C        C    0.81430000  0.56810000  0.68190000  0.11000000
C        C    0.84910000  0.10500000  0.14500000  0.84800000
C        C    0.34910000  0.60499900  0.14500000  0.84800000
C        C    0.34910000  0.10500000  0.64500000  0.84800000
C        C    0.84910000  0.60499900  0.64500000  0.84800000
C        C    0.86140000  0.21960000  0.03039950  0.11000000
C        C    0.36140000  0.71959900  0.03039950  0.11000000
C        C    0.36140000  0.21960000  0.53040000  0.11000000
C        C    0.86140000  0.71959900  0.53040000  0.11000000
C        C    0.90350000  0.22080000  0.02919940 -0.27400000
C        C    0.40349900  0.72080000  0.02919940 -0.27400000
C        C    0.40349900  0.22080000  0.52920000 -0.27400000
C        C    0.90350000  0.72080000  0.52920000 -0.27400000
C        C    0.92250000  0.21750000  0.03249950  0.84800000
C        C    0.42250100  0.71749900  0.03249950  0.84800000
C        C    0.42250100  0.21750000  0.53250000  0.84800000
C        C    0.92250000  0.71749900  0.53250000  0.84800000
Cr       Cr   0.05689950  0.08989970  0.16010000  1.85900000
Cr       Cr   0.55690000  0.58990000  0.16010000  1.85900000
Cr       Cr   0.55690000  0.08989970  0.66010100  1.85900000
Cr       Cr   0.05689950  0.58990000  0.66010100  1.85900000
Cr       Cr   0.96340100  0.06800020  0.18199900  1.62000000
Cr       Cr   0.46340000  0.56799900  0.18199900  1.62000000
Cr       Cr   0.46340000  0.06800020  0.68200000  1.62000000
Cr       Cr   0.96340100  0.56799900  0.68200000  1.62000000
O        O    0.95499900  0.20060000  0.04939940 -1.28000000
O        O    0.45500000  0.70060000  0.04939940 -1.28000000
O        O    0.45500000  0.20060000  0.54940000 -1.28000000
O        O    0.95499900  0.70060000  0.54940000 -1.28000000
F        F    0.97930100  0.08339950  0.16660000 -0.56600000
F        F    0.47930000  0.58340000  0.16660000 -0.56600000
F        F    0.47930000  0.08339950  0.66659900 -0.56600000
F        F    0.97930100  0.58340000  0.66659900 -0.56600000
C        C    0.84190000  0.15755000  0.09244960 -0.27400000
C        C    0.34190100  0.65754900  0.09244960 -0.27400000
C        C    0.34190100  0.15755000  0.59245000 -0.27400000
C        C    0.84190000  0.65754900  0.59245000 -0.27400000
C        C    0.81430000  0.18189900  0.06810030  0.11000000
C        C    0.31430100  0.68190000  0.06810030  0.11000000
C        C    0.31430100  0.18189900  0.56810000  0.11000000
C        C    0.81430000  0.68190000  0.56810000  0.11000000
C        C    0.84910000  0.14500000  0.10500000  0.84800000
C        C    0.34910000  0.64500000  0.10500000  0.84800000
C        C    0.34910000  0.14500000  0.60499900  0.84800000
C        C    0.84910000  0.64500000  0.60499900  0.84800000
C        C    0.86140000  0.03039950  0.21960000  0.11000000
C        C    0.36140000  0.53040000  0.21960000  0.11000000
C        C    0.36140000  0.03039950  0.71959900  0.11000000
C        C    0.86140000  0.53040000  0.71959900  0.11000000
C        C    0.90350000  0.02919940  0.22080000 -0.27400000
C        C    0.40349900  0.52920000  0.22080000 -0.27400000
C        C    0.40349900  0.02919940  0.72080000 -0.27400000
C        C    0.90350000  0.52920000  0.72080000 -0.27400000
C        C    0.92250000  0.03249950  0.21750000  0.84800000
C        C    0.42250100  0.53250000  0.21750000  0.84800000
C        C    0.42250100  0.03249950  0.71749900  0.84800000
C        C    0.92250000  0.53250000  0.71749900  0.84800000
Cr       Cr   0.19310000  0.08989970  0.08989970  1.85900000
Cr       Cr   0.69309900  0.58990000  0.08989970  1.85900000
Cr       Cr   0.69309900  0.08989970  0.58990000  1.85900000
Cr       Cr   0.19310000  0.58990000  0.58990000  1.85900000
Cr       Cr   0.28660000  0.06800020  0.06800020  1.62000000
Cr       Cr   0.78660000  0.56799900  0.06800020  1.62000000
Cr       Cr   0.78660000  0.06800020  0.56799900  1.62000000
Cr       Cr   0.28660000  0.56799900  0.56799900  1.62000000
O        O    0.29500000  0.20060000  0.20060000 -1.28000000
O        O    0.79500000  0.70060000  0.20060000 -1.28000000
O        O    0.79500000  0.20060000  0.70060000 -1.28000000
O        O    0.29500000  0.70060000  0.70060000 -1.28000000
F        F    0.27070000  0.08339950  0.08339950 -0.56600000
F        F    0.77070000  0.58340000  0.08339950 -0.56600000
F        F    0.77070000  0.08339950  0.58340000 -0.56600000
F        F    0.27070000  0.58340000  0.58340000 -0.56600000
C        C    0.40810000  0.15755000  0.15755000 -0.27400000
C        C    0.90810000  0.65754900  0.15755000 -0.27400000
C        C    0.90810000  0.15755000  0.65754900 -0.27400000
C        C    0.40810000  0.65754900  0.65754900 -0.27400000
C        C    0.43570000  0.18189900  0.18189900  0.11000000
C        C    0.93570100  0.68190000  0.18189900  0.11000000
C        C    0.93570100  0.18189900  0.68190000  0.11000000
C        C    0.43570000  0.68190000  0.68190000  0.11000000
C        C    0.40090000  0.14500000  0.14500000  0.84800000
C        C    0.90089900  0.64500000  0.14500000  0.84800000
C        C    0.90089900  0.14500000  0.64500000  0.84800000
C        C    0.40090000  0.64500000  0.64500000  0.84800000
C        C    0.38860100  0.03039950  0.03039950  0.11000000
C        C    0.88860000  0.53040000  0.03039950  0.11000000
C        C    0.88860000  0.03039950  0.53040000  0.11000000
C        C    0.38860100  0.53040000  0.53040000  0.11000000
C        C    0.34650000  0.02919940  0.02919940 -0.27400000
C        C    0.84650000  0.52920000  0.02919940 -0.27400000
C        C    0.84650000  0.02919940  0.52920000 -0.27400000
C        C    0.34650000  0.52920000  0.52920000 -0.27400000
C        C    0.32750000  0.03249950  0.03249950  0.84800000
C        C    0.82750000  0.53250000  0.03249950  0.84800000
C        C    0.82750000  0.03249950  0.53250000  0.84800000
C        C    0.32750000  0.53250000  0.53250000  0.84800000
Cr       Cr   0.19310000  0.16010000  0.16010000  1.85900000
Cr       Cr   0.69309900  0.66010100  0.16010000  1.85900000
Cr       Cr   0.69309900  0.16010000  0.66010100  1.85900000
Cr       Cr   0.19310000  0.66010100  0.66010100  1.85900000
Cr       Cr   0.28660000  0.18199900  0.18199900  1.85900000
Cr       Cr   0.78660000  0.68200000  0.18199900  1.85900000
Cr       Cr   0.78660000  0.18199900  0.68200000  1.85900000
Cr       Cr   0.28660000  0.68200000  0.68200000  1.85900000
O        O    0.29500000  0.04939940  0.04939940 -1.28000000
O        O    0.79500000  0.54940000  0.04939940 -1.28000000
O        O    0.79500000  0.04939940  0.54940000 -1.28000000
O        O    0.29500000  0.54940000  0.54940000 -1.28000000
C        C    0.40810000  0.09244960  0.09244960 -0.27400000
C        C    0.90810000  0.59245000  0.09244960 -0.27400000
C        C    0.90810000  0.09244960  0.59245000 -0.27400000
C        C    0.40810000  0.59245000  0.59245000 -0.27400000
C        C    0.43570000  0.06810030  0.06810030  0.11000000
C        C    0.93570100  0.56810000  0.06810030  0.11000000
C        C    0.93570100  0.06810030  0.56810000  0.11000000
C        C    0.43570000  0.56810000  0.56810000  0.11000000
C        C    0.40090000  0.10500000  0.10500000  0.84800000
C        C    0.90089900  0.60499900  0.10500000  0.84800000
C        C    0.90089900  0.10500000  0.60499900  0.84800000
C        C    0.40090000  0.60499900  0.60499900  0.84800000
C        C    0.38860100  0.21960000  0.21960000  0.11000000
C        C    0.88860000  0.71959900  0.21960000  0.11000000
C        C    0.88860000  0.21960000  0.71959900  0.11000000
C        C    0.38860100  0.71959900  0.71959900  0.11000000
C        C    0.34650000  0.22080000  0.22080000 -0.27400000
C        C    0.84650000  0.72080000  0.22080000 -0.27400000
C        C    0.84650000  0.22080000  0.72080000 -0.27400000
C        C    0.34650000  0.72080000  0.72080000 -0.27400000
C        C    0.32750000  0.21750000  0.21750000  0.84800000
C        C    0.82750000  0.71749900  0.21750000  0.84800000
C        C    0.82750000  0.21750000  0.71749900  0.84800000
C        C    0.32750000  0.71749900  0.71749900  0.84800000
Cr       Cr   0.08989970  0.05689950  0.16010000  1.62000000
Cr       Cr   0.58990000  0.55690000  0.16010000  1.62000000
Cr       Cr   0.58990000  0.05689950  0.66010100  1.62000000
Cr       Cr   0.08989970  0.55690000  0.66010100  1.62000000
Cr       Cr   0.56799900  0.46340000  0.18199900  1.85900000
Cr       Cr   0.06800020  0.96340100  0.18199900  1.85900000
Cr       Cr   0.06800020  0.46340000  0.68200000  1.85900000
Cr       Cr   0.56799900  0.96340100  0.68200000  1.85900000
O        O    0.70060000  0.45500000  0.04939940 -1.28000000
O        O    0.20060000  0.95499900  0.04939940 -1.28000000
O        O    0.20060000  0.45500000  0.54940000 -1.28000000
O        O    0.70060000  0.95499900  0.54940000 -1.28000000
F        F    0.10360000  0.03840030  0.14640000 -0.56600000
F        F    0.60360000  0.53840000  0.14640000 -0.56600000
F        F    0.60360000  0.03840030  0.64639900 -0.56600000
F        F    0.10360000  0.53840000  0.64639900 -0.56600000
C        C    0.65754900  0.34190100  0.09244960 -0.27400000
C        C    0.15755000  0.84190000  0.09244960 -0.27400000
C        C    0.15755000  0.34190100  0.59245000 -0.27400000
C        C    0.65754900  0.84190000  0.59245000 -0.27400000
C        C    0.68190000  0.31430100  0.06810030  0.11000000
C        C    0.18189900  0.81430000  0.06810030  0.11000000
C        C    0.18189900  0.31430100  0.56810000  0.11000000
C        C    0.68190000  0.81430000  0.56810000  0.11000000
C        C    0.64500000  0.34910000  0.10500000  0.84800000
C        C    0.14500000  0.84910000  0.10500000  0.84800000
C        C    0.14500000  0.34910000  0.60499900  0.84800000
C        C    0.64500000  0.84910000  0.60499900  0.84800000
C        C    0.53040000  0.36140000  0.21960000  0.11000000
C        C    0.03039950  0.86140000  0.21960000  0.11000000
C        C    0.03039950  0.36140000  0.71959900  0.11000000
C        C    0.53040000  0.86140000  0.71959900  0.11000000
C        C    0.52920000  0.40349900  0.22080000 -0.27400000
C        C    0.02919940  0.90350000  0.22080000 -0.27400000
C        C    0.02919940  0.40349900  0.72080000 -0.27400000
C        C    0.52920000  0.90350000  0.72080000 -0.27400000
C        C    0.53250000  0.42250100  0.21750000  0.84800000
C        C    0.03249950  0.92250000  0.21750000  0.84800000
C        C    0.03249950  0.42250100  0.71749900  0.84800000
C        C    0.53250000  0.92250000  0.71749900  0.84800000
Cr       Cr   0.16010000  0.05689950  0.08989970  1.62000000
Cr       Cr   0.66010100  0.55690000  0.08989970  1.62000000
Cr       Cr   0.66010100  0.05689950  0.58990000  1.62000000
Cr       Cr   0.16010000  0.55690000  0.58990000  1.62000000
Cr       Cr   0.68200000  0.46340000  0.06800020  1.85900000
Cr       Cr   0.18199900  0.96340100  0.06800020  1.85900000
Cr       Cr   0.18199900  0.46340000  0.56799900  1.85900000
Cr       Cr   0.68200000  0.96340100  0.56799900  1.85900000
O        O    0.54940000  0.45500000  0.20060000 -1.28000000
O        O    0.04939940  0.95499900  0.20060000 -1.28000000
O        O    0.04939940  0.45500000  0.70060000 -1.28000000
O        O    0.54940000  0.95499900  0.70060000 -1.28000000
F        F    0.14640000  0.03840030  0.10360000 -0.56600000
F        F    0.64639900  0.53840000  0.10360000 -0.56600000
F        F    0.64639900  0.03840030  0.60360000 -0.56600000
F        F    0.14640000  0.53840000  0.60360000 -0.56600000
C        C    0.59245000  0.34190100  0.15755000 -0.27400000
C        C    0.09244960  0.84190000  0.15755000 -0.27400000
C        C    0.09244960  0.34190100  0.65754900 -0.27400000
C        C    0.59245000  0.84190000  0.65754900 -0.27400000
C        C    0.56810000  0.31430100  0.18189900  0.11000000
C        C    0.06810030  0.81430000  0.18189900  0.11000000
C        C    0.06810030  0.31430100  0.68190000  0.11000000
C        C    0.56810000  0.81430000  0.68190000  0.11000000
C        C    0.60499900  0.34910000  0.14500000  0.84800000
C        C    0.10500000  0.84910000  0.14500000  0.84800000
C        C    0.10500000  0.34910000  0.64500000  0.84800000
C        C    0.60499900  0.84910000  0.64500000  0.84800000
C        C    0.71959900  0.36140000  0.03039950  0.11000000
C        C    0.21960000  0.86140000  0.03039950  0.11000000
C        C    0.21960000  0.36140000  0.53040000  0.11000000
C        C    0.71959900  0.86140000  0.53040000  0.11000000
C        C    0.72080000  0.40349900  0.02919940 -0.27400000
C        C    0.22080000  0.90350000  0.02919940 -0.27400000
C        C    0.22080000  0.40349900  0.52920000 -0.27400000
C        C    0.72080000  0.90350000  0.52920000 -0.27400000
C        C    0.71749900  0.42250100  0.03249950  0.84800000
C        C    0.21750000  0.92250000  0.03249950  0.84800000
C        C    0.21750000  0.42250100  0.53250000  0.84800000
C        C    0.71749900  0.92250000  0.53250000  0.84800000
Cr       Cr   0.08989970  0.19310000  0.08989970  1.62000000
Cr       Cr   0.58990000  0.69309900  0.08989970  1.62000000
Cr       Cr   0.58990000  0.19310000  0.58990000  1.62000000
Cr       Cr   0.08989970  0.69309900  0.58990000  1.62000000
Cr       Cr   0.06800020  0.28660000  0.06800020  1.85900000
Cr       Cr   0.56799900  0.78660000  0.06800020  1.85900000
Cr       Cr   0.56799900  0.28660000  0.56799900  1.85900000
Cr       Cr   0.06800020  0.78660000  0.56799900  1.85900000
O        O    0.20060000  0.29500000  0.20060000 -1.28000000
O        O    0.70060000  0.79500000  0.20060000 -1.28000000
O        O    0.70060000  0.29500000  0.70060000 -1.28000000
O        O    0.20060000  0.79500000  0.70060000 -1.28000000
F        F    0.10360000  0.21159900  0.10360000 -0.56600000
F        F    0.60360000  0.71160000  0.10360000 -0.56600000
F        F    0.60360000  0.21159900  0.60360000 -0.56600000
F        F    0.10360000  0.71160000  0.60360000 -0.56600000
C        C    0.15755000  0.40810000  0.15755000 -0.27400000
C        C    0.65754900  0.90810000  0.15755000 -0.27400000
C        C    0.65754900  0.40810000  0.65754900 -0.27400000
C        C    0.15755000  0.90810000  0.65754900 -0.27400000
C        C    0.18189900  0.43570000  0.18189900  0.11000000
C        C    0.68190000  0.93570100  0.18189900  0.11000000
C        C    0.68190000  0.43570000  0.68190000  0.11000000
C        C    0.18189900  0.93570100  0.68190000  0.11000000
C        C    0.14500000  0.40090000  0.14500000  0.84800000
C        C    0.64500000  0.90089900  0.14500000  0.84800000
C        C    0.64500000  0.40090000  0.64500000  0.84800000
C        C    0.14500000  0.90089900  0.64500000  0.84800000
C        C    0.03039950  0.38860100  0.03039950  0.11000000
C        C    0.53040000  0.88860000  0.03039950  0.11000000
C        C    0.53040000  0.38860100  0.53040000  0.11000000
C        C    0.03039950  0.88860000  0.53040000  0.11000000
C        C    0.02919940  0.34650000  0.02919940 -0.27400000
C        C    0.52920000  0.84650000  0.02919940 -0.27400000
C        C    0.52920000  0.34650000  0.52920000 -0.27400000
C        C    0.02919940  0.84650000  0.52920000 -0.27400000
C        C    0.03249950  0.32750000  0.03249950  0.84800000
C        C    0.53250000  0.82750000  0.03249950  0.84800000
C        C    0.53250000  0.32750000  0.53250000  0.84800000
C        C    0.03249950  0.82750000  0.53250000  0.84800000
Cr       Cr   0.16010000  0.19310000  0.16010000  1.85900000
Cr       Cr   0.66010100  0.69309900  0.16010000  1.85900000
Cr       Cr   0.66010100  0.19310000  0.66010100  1.85900000
Cr       Cr   0.16010000  0.69309900  0.66010100  1.85900000
Cr       Cr   0.18199900  0.28660000  0.18199900  1.85900000
Cr       Cr   0.68200000  0.78660000  0.18199900  1.85900000
Cr       Cr   0.68200000  0.28660000  0.68200000  1.85900000
Cr       Cr   0.18199900  0.78660000  0.68200000  1.85900000
O        O    0.04939940  0.29500000  0.04939940 -1.28000000
O        O    0.54940000  0.79500000  0.04939940 -1.28000000
O        O    0.54940000  0.29500000  0.54940000 -1.28000000
O        O    0.04939940  0.79500000  0.54940000 -1.28000000
C        C    0.09244960  0.40810000  0.09244960 -0.27400000
C        C    0.59245000  0.90810000  0.09244960 -0.27400000
C        C    0.59245000  0.40810000  0.59245000 -0.27400000
C        C    0.09244960  0.90810000  0.59245000 -0.27400000
C        C    0.06810030  0.43570000  0.06810030  0.11000000
C        C    0.56810000  0.93570100  0.06810030  0.11000000
C        C    0.56810000  0.43570000  0.56810000  0.11000000
C        C    0.06810030  0.93570100  0.56810000  0.11000000
C        C    0.10500000  0.40090000  0.10500000  0.84800000
C        C    0.60499900  0.90089900  0.10500000  0.84800000
C        C    0.60499900  0.40090000  0.60499900  0.84800000
C        C    0.10500000  0.90089900  0.60499900  0.84800000
C        C    0.21960000  0.38860100  0.21960000  0.11000000
C        C    0.71959900  0.88860000  0.21960000  0.11000000
C        C    0.71959900  0.38860100  0.71959900  0.11000000
C        C    0.21960000  0.88860000  0.71959900  0.11000000
C        C    0.22080000  0.34650000  0.22080000 -0.27400000
C        C    0.72080000  0.84650000  0.22080000 -0.27400000
C        C    0.72080000  0.34650000  0.72080000 -0.27400000
C        C    0.22080000  0.84650000  0.72080000 -0.27400000
C        C    0.21750000  0.32750000  0.21750000  0.84800000
C        C    0.71749900  0.82750000  0.21750000  0.84800000
C        C    0.71749900  0.32750000  0.71749900  0.84800000
C        C    0.21750000  0.82750000  0.71749900  0.84800000
Cr       Cr   0.83990000  0.41010000  0.44310000  1.85900000
Cr       Cr   0.33989900  0.91010000  0.44310000  1.85900000
Cr       Cr   0.33989900  0.41010000  0.94310000  1.85900000
Cr       Cr   0.83990000  0.91010000  0.94310000  1.85900000
Cr       Cr   0.31800000  0.43200100  0.03659930  1.85900000
Cr       Cr   0.81800100  0.93200000  0.03659930  1.85900000
Cr       Cr   0.81800100  0.43200100  0.53660000  1.85900000
Cr       Cr   0.31800000  0.93200000  0.53660000  1.85900000
O        O    0.45060000  0.29940000  0.04500060 -1.28000000
O        O    0.95060100  0.79940000  0.04500060 -1.28000000
O        O    0.95060100  0.29940000  0.54500000 -1.28000000
O        O    0.45060000  0.79940000  0.54500000 -1.28000000
C        C    0.40755000  0.34245100  0.15810000 -0.27400000
C        C    0.90755000  0.84245000  0.15810000 -0.27400000
C        C    0.90755000  0.34245100  0.65809900 -0.27400000
C        C    0.40755000  0.84245000  0.65809900 -0.27400000
C        C    0.43190000  0.31810000  0.18570000  0.11000000
C        C    0.93190000  0.81810100  0.18570000  0.11000000
C        C    0.93190000  0.31810000  0.68569900  0.11000000
C        C    0.43190000  0.81810100  0.68569900  0.11000000
C        C    0.39500100  0.35500000  0.15090000  0.84800000
C        C    0.89500000  0.85500000  0.15090000  0.84800000
C        C    0.89500000  0.35500000  0.65090000  0.84800000
C        C    0.39500100  0.85500000  0.65090000  0.84800000
C        C    0.28040100  0.46960000  0.13860000  0.11000000
C        C    0.78040000  0.96960000  0.13860000  0.11000000
C        C    0.78040000  0.46960000  0.63860000  0.11000000
C        C    0.28040100  0.96960000  0.63860000  0.11000000
C        C    0.27920000  0.47080000  0.09650000 -0.27400000
C        C    0.77920000  0.97080100  0.09650000 -0.27400000
C        C    0.77920000  0.47080000  0.59650100 -0.27400000
C        C    0.27920000  0.97080100  0.59650100 -0.27400000
C        C    0.28250100  0.46750000  0.07750010  0.84800000
C        C    0.78250000  0.96750000  0.07750010  0.84800000
C        C    0.78250000  0.46750000  0.57749900  0.84800000
C        C    0.28250100  0.96750000  0.57749900  0.84800000
Cr       Cr   0.91010000  0.33989900  0.44310000  1.85900000
Cr       Cr   0.41010000  0.83990000  0.44310000  1.85900000
Cr       Cr   0.41010000  0.33989900  0.94310000  1.85900000
Cr       Cr   0.91010000  0.83990000  0.94310000  1.85900000
Cr       Cr   0.43200100  0.31800000  0.03659930  1.62000000
Cr       Cr   0.93200000  0.81800100  0.03659930  1.62000000
Cr       Cr   0.93200000  0.31800000  0.53660000  1.62000000
Cr       Cr   0.43200100  0.81800100  0.53660000  1.62000000
O        O    0.29940000  0.45060000  0.04500060 -1.28000000
O        O    0.79940000  0.95060100  0.04500060 -1.28000000
O        O    0.79940000  0.45060000  0.54500000 -1.28000000
O        O    0.29940000  0.95060100  0.54500000 -1.28000000
F        F    0.41660000  0.33340100  0.02069930 -0.56600000
F        F    0.91660000  0.83340000  0.02069930 -0.56600000
F        F    0.91660000  0.33340100  0.52070000 -0.56600000
F        F    0.41660000  0.83340000  0.52070000 -0.56600000
C        C    0.34245100  0.40755000  0.15810000 -0.27400000
C        C    0.84245000  0.90755000  0.15810000 -0.27400000
C        C    0.84245000  0.40755000  0.65809900 -0.27400000
C        C    0.34245100  0.90755000  0.65809900 -0.27400000
C        C    0.31810000  0.43190000  0.18570000  0.11000000
C        C    0.81810100  0.93190000  0.18570000  0.11000000
C        C    0.81810100  0.43190000  0.68569900  0.11000000
C        C    0.31810000  0.93190000  0.68569900  0.11000000
C        C    0.35500000  0.39500100  0.15090000  0.84800000
C        C    0.85500000  0.89500000  0.15090000  0.84800000
C        C    0.85500000  0.39500100  0.65090000  0.84800000
C        C    0.35500000  0.89500000  0.65090000  0.84800000
C        C    0.46960000  0.28040100  0.13860000  0.11000000
C        C    0.96960000  0.78040000  0.13860000  0.11000000
C        C    0.96960000  0.28040100  0.63860000  0.11000000
C        C    0.46960000  0.78040000  0.63860000  0.11000000
C        C    0.47080000  0.27920000  0.09650000 -0.27400000
C        C    0.97080100  0.77920000  0.09650000 -0.27400000
C        C    0.97080100  0.27920000  0.59650100 -0.27400000
C        C    0.47080000  0.77920000  0.59650100 -0.27400000
C        C    0.46750000  0.28250100  0.07750010  0.84800000
C        C    0.96750000  0.78250000  0.07750010  0.84800000
C        C    0.96750000  0.28250100  0.57749900  0.84800000
C        C    0.46750000  0.78250000  0.57749900  0.84800000
Cr       Cr   0.83990000  0.33989900  0.30690100  1.62000000
Cr       Cr   0.33989900  0.83990000  0.30690100  1.62000000
Cr       Cr   0.33989900  0.33989900  0.80690000  1.62000000
Cr       Cr   0.83990000  0.83990000  0.80690000  1.62000000
Cr       Cr   0.81800100  0.31800000  0.21340000  1.85900000
Cr       Cr   0.31800000  0.81800100  0.21340000  1.85900000
Cr       Cr   0.31800000  0.31800000  0.71340000  1.85900000
Cr       Cr   0.81800100  0.81800100  0.71340000  1.85900000
O        O    0.95060100  0.45060000  0.20500000 -1.28000000
O        O    0.45060000  0.95060100  0.20500000 -1.28000000
O        O    0.45060000  0.45060000  0.70500000 -1.28000000
O        O    0.95060100  0.95060100  0.70500000 -1.28000000
F        F    0.85360000  0.35360100  0.28840000 -0.56600000
F        F    0.35360100  0.85360000  0.28840000 -0.56600000
F        F    0.35360100  0.35360100  0.78840100 -0.56600000
F        F    0.85360000  0.85360000  0.78840100 -0.56600000
C        C    0.90755000  0.40755000  0.09189950 -0.27400000
C        C    0.40755000  0.90755000  0.09189950 -0.27400000
C        C    0.40755000  0.40755000  0.59190000 -0.27400000
C        C    0.90755000  0.90755000  0.59190000 -0.27400000
C        C    0.93190000  0.43190000  0.06429950  0.11000000
C        C    0.43190000  0.93190000  0.06429950  0.11000000
C        C    0.43190000  0.43190000  0.56430000  0.11000000
C        C    0.93190000  0.93190000  0.56430000  0.11000000
C        C    0.89500000  0.39500100  0.09910060  0.84800000
C        C    0.39500100  0.89500000  0.09910060  0.84800000
C        C    0.39500100  0.39500100  0.59910000  0.84800000
C        C    0.89500000  0.89500000  0.59910000  0.84800000
C        C    0.78040000  0.28040100  0.11140000  0.11000000
C        C    0.28040100  0.78040000  0.11140000  0.11000000
C        C    0.28040100  0.28040100  0.61139900  0.11000000
C        C    0.78040000  0.78040000  0.61139900  0.11000000
C        C    0.77920000  0.27920000  0.15350000 -0.27400000
C        C    0.27920000  0.77920000  0.15350000 -0.27400000
C        C    0.27920000  0.27920000  0.65350000 -0.27400000
C        C    0.77920000  0.77920000  0.65350000 -0.27400000
C        C    0.78250000  0.28250100  0.17250000  0.84800000
C        C    0.28250100  0.78250000  0.17250000  0.84800000
C        C    0.28250100  0.28250100  0.67250000  0.84800000
C        C    0.78250000  0.78250000  0.67250000  0.84800000
Cr       Cr   0.91010000  0.41010000  0.30690100  1.62000000
Cr       Cr   0.41010000  0.91010000  0.30690100  1.62000000
Cr       Cr   0.41010000  0.41010000  0.80690000  1.62000000
Cr       Cr   0.91010000  0.91010000  0.80690000  1.62000000
Cr       Cr   0.93200000  0.43200100  0.21340000  1.85900000
Cr       Cr   0.43200100  0.93200000  0.21340000  1.85900000
Cr       Cr   0.43200100  0.43200100  0.71340000  1.85900000
Cr       Cr   0.93200000  0.93200000  0.71340000  1.85900000
O        O    0.79940000  0.29940000  0.20500000 -1.28000000
O        O    0.29940000  0.79940000  0.20500000 -1.28000000
O        O    0.29940000  0.29940000  0.70500000 -1.28000000
O        O    0.79940000  0.79940000  0.70500000 -1.28000000
F        F    0.89640000  0.39640000  0.28840000 -0.56600000
F        F    0.39640000  0.89640000  0.28840000 -0.56600000
F        F    0.39640000  0.39640000  0.78840100 -0.56600000
F        F    0.89640000  0.89640000  0.78840100 -0.56600000
C        C    0.84245000  0.34245100  0.09189950 -0.27400000
C        C    0.34245100  0.84245000  0.09189950 -0.27400000
C        C    0.34245100  0.34245100  0.59190000 -0.27400000
C        C    0.84245000  0.84245000  0.59190000 -0.27400000
C        C    0.81810100  0.31810000  0.06429950  0.11000000
C        C    0.31810000  0.81810100  0.06429950  0.11000000
C        C    0.31810000  0.31810000  0.56430000  0.11000000
C        C    0.81810100  0.81810100  0.56430000  0.11000000
C        C    0.85500000  0.35500000  0.09910060  0.84800000
C        C    0.35500000  0.85500000  0.09910060  0.84800000
C        C    0.35500000  0.35500000  0.59910000  0.84800000
C        C    0.85500000  0.85500000  0.59910000  0.84800000
C        C    0.96960000  0.46960000  0.11140000  0.11000000
C        C    0.46960000  0.96960000  0.11140000  0.11000000
C        C    0.46960000  0.46960000  0.61139900  0.11000000
C        C    0.96960000  0.96960000  0.61139900  0.11000000
C        C    0.97080100  0.47080000  0.15350000 -0.27400000
C        C    0.47080000  0.97080100  0.15350000 -0.27400000
C        C    0.47080000  0.47080000  0.65350000 -0.27400000
C        C    0.97080100  0.97080100  0.65350000 -0.27400000
C        C    0.96750000  0.46750000  0.17250000  0.84800000
C        C    0.46750000  0.96750000  0.17250000  0.84800000
C        C    0.46750000  0.46750000  0.67250000  0.84800000
C        C    0.96750000  0.96750000  0.67250000  0.84800000
Cr       Cr   0.91010000  0.30690100  0.41010000  1.85900000
Cr       Cr   0.41010000  0.80690000  0.41010000  1.85900000
Cr       Cr   0.41010000  0.30690100  0.91010000  1.85900000
Cr       Cr   0.91010000  0.80690000  0.91010000  1.85900000
Cr       Cr   0.93200000  0.21340000  0.43200100  1.85900000
Cr       Cr   0.43200100  0.71340000  0.43200100  1.85900000
Cr       Cr   0.43200100  0.21340000  0.93200000  1.85900000
Cr       Cr   0.93200000  0.71340000  0.93200000  1.85900000
O        O    0.79940000  0.20500000  0.29940000 -1.28000000
O        O    0.29940000  0.70500000  0.29940000 -1.28000000
O        O    0.29940000  0.20500000  0.79940000 -1.28000000
O        O    0.79940000  0.70500000  0.79940000 -1.28000000
C        C    0.84245000  0.09189950  0.34245100 -0.27400000
C        C    0.34245100  0.59190000  0.34245100 -0.27400000
C        C    0.34245100  0.09189950  0.84245000 -0.27400000
C        C    0.84245000  0.59190000  0.84245000 -0.27400000
C        C    0.81810100  0.06429950  0.31810000  0.11000000
C        C    0.31810000  0.56430000  0.31810000  0.11000000
C        C    0.31810000  0.06429950  0.81810100  0.11000000
C        C    0.81810100  0.56430000  0.81810100  0.11000000
C        C    0.85500000  0.09910060  0.35500000  0.84800000
C        C    0.35500000  0.59910000  0.35500000  0.84800000
C        C    0.35500000  0.09910060  0.85500000  0.84800000
C        C    0.85500000  0.59910000  0.85500000  0.84800000
C        C    0.96960000  0.11140000  0.46960000  0.11000000
C        C    0.46960000  0.61139900  0.46960000  0.11000000
C        C    0.46960000  0.11140000  0.96960000  0.11000000
C        C    0.96960000  0.61139900  0.96960000  0.11000000
C        C    0.97080100  0.15350000  0.47080000 -0.27400000
C        C    0.47080000  0.65350000  0.47080000 -0.27400000
C        C    0.47080000  0.15350000  0.97080100 -0.27400000
C        C    0.97080100  0.65350000  0.97080100 -0.27400000
C        C    0.96750000  0.17250000  0.46750000  0.84800000
C        C    0.46750000  0.67250000  0.46750000  0.84800000
C        C    0.46750000  0.17250000  0.96750000  0.84800000
C        C    0.96750000  0.67250000  0.96750000  0.84800000
Cr       Cr   0.83990000  0.30690100  0.33989900  1.85900000
Cr       Cr   0.33989900  0.80690000  0.33989900  1.85900000
Cr       Cr   0.33989900  0.30690100  0.83990000  1.85900000
Cr       Cr   0.83990000  0.80690000  0.83990000  1.85900000
Cr       Cr   0.81800100  0.21340000  0.31800000  1.62000000
Cr       Cr   0.31800000  0.71340000  0.31800000  1.62000000
Cr       Cr   0.31800000  0.21340000  0.81800100  1.62000000
Cr       Cr   0.81800100  0.71340000  0.81800100  1.62000000
O        O    0.95060100  0.20500000  0.45060000 -1.28000000
O        O    0.45060000  0.70500000  0.45060000 -1.28000000
O        O    0.45060000  0.20500000  0.95060100 -1.28000000
O        O    0.95060100  0.70500000  0.95060100 -1.28000000
F        F    0.83340000  0.22930000  0.33340100 -0.56600000
F        F    0.33340100  0.72930000  0.33340100 -0.56600000
F        F    0.33340100  0.22930000  0.83340000 -0.56600000
F        F    0.83340000  0.72930000  0.83340000 -0.56600000
C        C    0.90755000  0.09189950  0.40755000 -0.27400000
C        C    0.40755000  0.59190000  0.40755000 -0.27400000
C        C    0.40755000  0.09189950  0.90755000 -0.27400000
C        C    0.90755000  0.59190000  0.90755000 -0.27400000
C        C    0.93190000  0.06429950  0.43190000  0.11000000
C        C    0.43190000  0.56430000  0.43190000  0.11000000
C        C    0.43190000  0.06429950  0.93190000  0.11000000
C        C    0.93190000  0.56430000  0.93190000  0.11000000
C        C    0.89500000  0.09910060  0.39500100  0.84800000
C        C    0.39500100  0.59910000  0.39500100  0.84800000
C        C    0.39500100  0.09910060  0.89500000  0.84800000
C        C    0.89500000  0.59910000  0.89500000  0.84800000
C        C    0.78040000  0.11140000  0.28040100  0.11000000
C        C    0.28040100  0.61139900  0.28040100  0.11000000
C        C    0.28040100  0.11140000  0.78040000  0.11000000
C        C    0.78040000  0.61139900  0.78040000  0.11000000
C        C    0.77920000  0.15350000  0.27920000 -0.27400000
C        C    0.27920000  0.65350000  0.27920000 -0.27400000
C        C    0.27920000  0.15350000  0.77920000 -0.27400000
C        C    0.77920000  0.65350000  0.77920000 -0.27400000
C        C    0.78250000  0.17250000  0.28250100  0.84800000
C        C    0.28250100  0.67250000  0.28250100  0.84800000
C        C    0.28250100  0.17250000  0.78250000  0.84800000
C        C    0.78250000  0.67250000  0.78250000  0.84800000
Cr       Cr   0.83990000  0.44310000  0.41010000  1.62000000
Cr       Cr   0.33989900  0.94310000  0.41010000  1.62000000
Cr       Cr   0.33989900  0.44310000  0.91010000  1.62000000
Cr       Cr   0.83990000  0.94310000  0.91010000  1.62000000
Cr       Cr   0.31800000  0.03659930  0.43200100  1.85900000
Cr       Cr   0.81800100  0.53660000  0.43200100  1.85900000
Cr       Cr   0.81800100  0.03659930  0.93200000  1.85900000
Cr       Cr   0.31800000  0.53660000  0.93200000  1.85900000
O        O    0.45060000  0.04500060  0.29940000 -1.28000000
O        O    0.95060100  0.54500000  0.29940000 -1.28000000
O        O    0.95060100  0.04500060  0.79940000 -1.28000000
O        O    0.45060000  0.54500000  0.79940000 -1.28000000
F        F    0.85360000  0.46160000  0.39640000 -0.56600000
F        F    0.35360100  0.96160000  0.39640000 -0.56600000
F        F    0.35360100  0.46160000  0.89640000 -0.56600000
F        F    0.85360000  0.96160000  0.89640000 -0.56600000
C        C    0.40755000  0.15810000  0.34245100 -0.27400000
C        C    0.90755000  0.65809900  0.34245100 -0.27400000
C        C    0.90755000  0.15810000  0.84245000 -0.27400000
C        C    0.40755000  0.65809900  0.84245000 -0.27400000
C        C    0.43190000  0.18570000  0.31810000  0.11000000
C        C    0.93190000  0.68569900  0.31810000  0.11000000
C        C    0.93190000  0.18570000  0.81810100  0.11000000
C        C    0.43190000  0.68569900  0.81810100  0.11000000
C        C    0.39500100  0.15090000  0.35500000  0.84800000
C        C    0.89500000  0.65090000  0.35500000  0.84800000
C        C    0.89500000  0.15090000  0.85500000  0.84800000
C        C    0.39500100  0.65090000  0.85500000  0.84800000
C        C    0.28040100  0.13860000  0.46960000  0.11000000
C        C    0.78040000  0.63860000  0.46960000  0.11000000
C        C    0.78040000  0.13860000  0.96960000  0.11000000
C        C    0.28040100  0.63860000  0.96960000  0.11000000
C        C    0.27920000  0.09650000  0.47080000 -0.27400000
C        C    0.77920000  0.59650100  0.47080000 -0.27400000
C        C    0.77920000  0.09650000  0.97080100 -0.27400000
C        C    0.27920000  0.59650100  0.97080100 -0.27400000
C        C    0.28250100  0.07750010  0.46750000  0.84800000
C        C    0.78250000  0.57749900  0.46750000  0.84800000
C        C    0.78250000  0.07750010  0.96750000  0.84800000
C        C    0.28250100  0.57749900  0.96750000  0.84800000
Cr       Cr   0.91010000  0.44310000  0.33989900  1.85900000
Cr       Cr   0.41010000  0.94310000  0.33989900  1.85900000
Cr       Cr   0.41010000  0.44310000  0.83990000  1.85900000
Cr       Cr   0.91010000  0.94310000  0.83990000  1.85900000
Cr       Cr   0.43200100  0.03659930  0.31800000  1.62000000
Cr       Cr   0.93200000  0.53660000  0.31800000  1.62000000
Cr       Cr   0.93200000  0.03659930  0.81800100  1.62000000
Cr       Cr   0.43200100  0.53660000  0.81800100  1.62000000
O        O    0.29940000  0.04500060  0.45060000 -1.28000000
O        O    0.79940000  0.54500000  0.45060000 -1.28000000
O        O    0.79940000  0.04500060  0.95060100 -1.28000000
O        O    0.29940000  0.54500000  0.95060100 -1.28000000
F        F    0.41660000  0.02069930  0.33340100 -0.56600000
F        F    0.91660000  0.52070000  0.33340100 -0.56600000
F        F    0.91660000  0.02069930  0.83340000 -0.56600000
F        F    0.41660000  0.52070000  0.83340000 -0.56600000
C        C    0.34245100  0.15810000  0.40755000 -0.27400000
C        C    0.84245000  0.65809900  0.40755000 -0.27400000
C        C    0.84245000  0.15810000  0.90755000 -0.27400000
C        C    0.34245100  0.65809900  0.90755000 -0.27400000
C        C    0.31810000  0.18570000  0.43190000  0.11000000
C        C    0.81810100  0.68569900  0.43190000  0.11000000
C        C    0.81810100  0.18570000  0.93190000  0.11000000
C        C    0.31810000  0.68569900  0.93190000  0.11000000
C        C    0.35500000  0.15090000  0.39500100  0.84800000
C        C    0.85500000  0.65090000  0.39500100  0.84800000
C        C    0.85500000  0.15090000  0.89500000  0.84800000
C        C    0.35500000  0.65090000  0.89500000  0.84800000
C        C    0.46960000  0.13860000  0.28040100  0.11000000
C        C    0.96960000  0.63860000  0.28040100  0.11000000
C        C    0.96960000  0.13860000  0.78040000  0.11000000
C        C    0.46960000  0.63860000  0.78040000  0.11000000
C        C    0.47080000  0.09650000  0.27920000 -0.27400000
C        C    0.97080100  0.59650100  0.27920000 -0.27400000
C        C    0.97080100  0.09650000  0.77920000 -0.27400000
C        C    0.47080000  0.59650100  0.77920000 -0.27400000
C        C    0.46750000  0.07750010  0.28250100  0.84800000
C        C    0.96750000  0.57749900  0.28250100  0.84800000
C        C    0.96750000  0.07750010  0.78250000  0.84800000
C        C    0.46750000  0.57749900  0.78250000  0.84800000
Cr       Cr   0.80690000  0.33989900  0.33989900  1.85900000
Cr       Cr   0.30690100  0.83990000  0.33989900  1.85900000
Cr       Cr   0.30690100  0.33989900  0.83990000  1.85900000
Cr       Cr   0.80690000  0.83990000  0.83990000  1.85900000
Cr       Cr   0.71340000  0.31800000  0.31800000  1.62000000
Cr       Cr   0.21340000  0.81800100  0.31800000  1.62000000
Cr       Cr   0.21340000  0.31800000  0.81800100  1.62000000
Cr       Cr   0.71340000  0.81800100  0.81800100  1.62000000
O        O    0.70500000  0.45060000  0.45060000 -1.28000000
O        O    0.20500000  0.95060100  0.45060000 -1.28000000
O        O    0.20500000  0.45060000  0.95060100 -1.28000000
O        O    0.70500000  0.95060100  0.95060100 -1.28000000
F        F    0.72930000  0.33340100  0.33340100 -0.56600000
F        F    0.22930000  0.83340000  0.33340100 -0.56600000
F        F    0.22930000  0.33340100  0.83340000 -0.56600000
F        F    0.72930000  0.83340000  0.83340000 -0.56600000
C        C    0.59190000  0.40755000  0.40755000 -0.27400000
C        C    0.09189950  0.90755000  0.40755000 -0.27400000
C        C    0.09189950  0.40755000  0.90755000 -0.27400000
C        C    0.59190000  0.90755000  0.90755000 -0.27400000
C        C    0.56430000  0.43190000  0.43190000  0.11000000
C        C    0.06429950  0.93190000  0.43190000  0.11000000
C        C    0.06429950  0.43190000  0.93190000  0.11000000
C        C    0.56430000  0.93190000  0.93190000  0.11000000
C        C    0.59910000  0.39500100  0.39500100  0.84800000
C        C    0.09910060  0.89500000  0.39500100  0.84800000
C        C    0.09910060  0.39500100  0.89500000  0.84800000
C        C    0.59910000  0.89500000  0.89500000  0.84800000
C        C    0.61139900  0.28040100  0.28040100  0.11000000
C        C    0.11140000  0.78040000  0.28040100  0.11000000
C        C    0.11140000  0.28040100  0.78040000  0.11000000
C        C    0.61139900  0.78040000  0.78040000  0.11000000
C        C    0.65350000  0.27920000  0.27920000 -0.27400000
C        C    0.15350000  0.77920000  0.27920000 -0.27400000
C        C    0.15350000  0.27920000  0.77920000 -0.27400000
C        C    0.65350000  0.77920000  0.77920000 -0.27400000
C        C    0.67250000  0.28250100  0.28250100  0.84800000
C        C    0.17250000  0.78250000  0.28250100  0.84800000
C        C    0.17250000  0.28250100  0.78250000  0.84800000
C        C    0.67250000  0.78250000  0.78250000  0.84800000
Cr       Cr   0.80690000  0.41010000  0.41010000  1.85900000
Cr       Cr   0.30690100  0.91010000  0.41010000  1.85900000
Cr       Cr   0.30690100  0.41010000  0.91010000  1.85900000
Cr       Cr   0.80690000  0.91010000  0.91010000  1.85900000
Cr       Cr   0.71340000  0.43200100  0.43200100  1.85900000
Cr       Cr   0.21340000  0.93200000  0.43200100  1.85900000
Cr       Cr   0.21340000  0.43200100  0.93200000  1.85900000
Cr       Cr   0.71340000  0.93200000  0.93200000  1.85900000
O        O    0.70500000  0.29940000  0.29940000 -1.28000000
O        O    0.20500000  0.79940000  0.29940000 -1.28000000
O        O    0.20500000  0.29940000  0.79940000 -1.28000000
O        O    0.70500000  0.79940000  0.79940000 -1.28000000
C        C    0.59190000  0.34245100  0.34245100 -0.27400000
C        C    0.09189950  0.84245000  0.34245100 -0.27400000
C        C    0.09189950  0.34245100  0.84245000 -0.27400000
C        C    0.59190000  0.84245000  0.84245000 -0.27400000
C        C    0.56430000  0.31810000  0.31810000  0.11000000
C        C    0.06429950  0.81810100  0.31810000  0.11000000
C        C    0.06429950  0.31810000  0.81810100  0.11000000
C        C    0.56430000  0.81810100  0.81810100  0.11000000
C        C    0.59910000  0.35500000  0.35500000  0.84800000
C        C    0.09910060  0.85500000  0.35500000  0.84800000
C        C    0.09910060  0.35500000  0.85500000  0.84800000
C        C    0.59910000  0.85500000  0.85500000  0.84800000
C        C    0.61139900  0.46960000  0.46960000  0.11000000
C        C    0.11140000  0.96960000  0.46960000  0.11000000
C        C    0.11140000  0.46960000  0.96960000  0.11000000
C        C    0.61139900  0.96960000  0.96960000  0.11000000
C        C    0.65350000  0.47080000  0.47080000 -0.27400000
C        C    0.15350000  0.97080100  0.47080000 -0.27400000
C        C    0.15350000  0.47080000  0.97080100 -0.27400000
C        C    0.65350000  0.97080100  0.97080100 -0.27400000
C        C    0.67250000  0.46750000  0.46750000  0.84800000
C        C    0.17250000  0.96750000  0.46750000  0.84800000
C        C    0.17250000  0.46750000  0.96750000  0.84800000
C        C    0.67250000  0.96750000  0.96750000  0.84800000
Cr       Cr   0.94310000  0.33989900  0.41010000  1.62000000
Cr       Cr   0.44310000  0.83990000  0.41010000  1.62000000
Cr       Cr   0.44310000  0.33989900  0.91010000  1.62000000
Cr       Cr   0.94310000  0.83990000  0.91010000  1.62000000
Cr       Cr   0.03659930  0.31800000  0.43200100  1.85900000
Cr       Cr   0.53660000  0.81800100  0.43200100  1.85900000
Cr       Cr   0.53660000  0.31800000  0.93200000  1.85900000
Cr       Cr   0.03659930  0.81800100  0.93200000  1.85900000
O        O    0.04500060  0.45060000  0.29940000 -1.28000000
O        O    0.54500000  0.95060100  0.29940000 -1.28000000
O        O    0.54500000  0.45060000  0.79940000 -1.28000000
O        O    0.04500060  0.95060100  0.79940000 -1.28000000
F        F    0.96160000  0.35360100  0.39640000 -0.56600000
F        F    0.46160000  0.85360000  0.39640000 -0.56600000
F        F    0.46160000  0.35360100  0.89640000 -0.56600000
F        F    0.96160000  0.85360000  0.89640000 -0.56600000
C        C    0.15810000  0.40755000  0.34245100 -0.27400000
C        C    0.65809900  0.90755000  0.34245100 -0.27400000
C        C    0.65809900  0.40755000  0.84245000 -0.27400000
C        C    0.15810000  0.90755000  0.84245000 -0.27400000
C        C    0.18570000  0.43190000  0.31810000  0.11000000
C        C    0.68569900  0.93190000  0.31810000  0.11000000
C        C    0.68569900  0.43190000  0.81810100  0.11000000
C        C    0.18570000  0.93190000  0.81810100  0.11000000
C        C    0.15090000  0.39500100  0.35500000  0.84800000
C        C    0.65090000  0.89500000  0.35500000  0.84800000
C        C    0.65090000  0.39500100  0.85500000  0.84800000
C        C    0.15090000  0.89500000  0.85500000  0.84800000
C        C    0.13860000  0.28040100  0.46960000  0.11000000
C        C    0.63860000  0.78040000  0.46960000  0.11000000
C        C    0.63860000  0.28040100  0.96960000  0.11000000
C        C    0.13860000  0.78040000  0.96960000  0.11000000
C        C    0.09650000  0.27920000  0.47080000 -0.27400000
C        C    0.59650100  0.77920000  0.47080000 -0.27400000
C        C    0.59650100  0.27920000  0.97080100 -0.27400000
C        C    0.09650000  0.77920000  0.97080100 -0.27400000
C        C    0.07750010  0.28250100  0.46750000  0.84800000
C        C    0.57749900  0.78250000  0.46750000  0.84800000
C        C    0.57749900  0.28250100  0.96750000  0.84800000
C        C    0.07750010  0.78250000  0.96750000  0.84800000
Cr       Cr   0.94310000  0.41010000  0.33989900  1.85900000
Cr       Cr   0.44310000  0.91010000  0.33989900  1.85900000
Cr       Cr   0.44310000  0.41010000  0.83990000  1.85900000
Cr       Cr   0.94310000  0.91010000  0.83990000  1.85900000
Cr       Cr   0.03659930  0.43200100  0.31800000  1.85900000
Cr       Cr   0.53660000  0.93200000  0.31800000  1.85900000
Cr       Cr   0.53660000  0.43200100  0.81800100  1.85900000
Cr       Cr   0.03659930  0.93200000  0.81800100  1.85900000
O        O    0.04500060  0.29940000  0.45060000 -1.28000000
O        O    0.54500000  0.79940000  0.45060000 -1.28000000
O        O    0.54500000  0.29940000  0.95060100 -1.28000000
O        O    0.04500060  0.79940000  0.95060100 -1.28000000
C        C    0.15810000  0.34245100  0.40755000 -0.27400000
C        C    0.65809900  0.84245000  0.40755000 -0.27400000
C        C    0.65809900  0.34245100  0.90755000 -0.27400000
C        C    0.15810000  0.84245000  0.90755000 -0.27400000
C        C    0.18570000  0.31810000  0.43190000  0.11000000
C        C    0.68569900  0.81810100  0.43190000  0.11000000
C        C    0.68569900  0.31810000  0.93190000  0.11000000
C        C    0.18570000  0.81810100  0.93190000  0.11000000
C        C    0.15090000  0.35500000  0.39500100  0.84800000
C        C    0.65090000  0.85500000  0.39500100  0.84800000
C        C    0.65090000  0.35500000  0.89500000  0.84800000
C        C    0.15090000  0.85500000  0.89500000  0.84800000
C        C    0.13860000  0.46960000  0.28040100  0.11000000
C        C    0.63860000  0.96960000  0.28040100  0.11000000
C        C    0.63860000  0.46960000  0.78040000  0.11000000
C        C    0.13860000  0.96960000  0.78040000  0.11000000
C        C    0.09650000  0.47080000  0.27920000 -0.27400000
C        C    0.59650100  0.97080100  0.27920000 -0.27400000
C        C    0.59650100  0.47080000  0.77920000 -0.27400000
C        C    0.09650000  0.97080100  0.77920000 -0.27400000
C        C    0.07750010  0.46750000  0.28250100  0.84800000
C        C    0.57749900  0.96750000  0.28250100  0.84800000
C        C    0.57749900  0.46750000  0.78250000  0.84800000
C        C    0.07750010  0.96750000  0.78250000  0.84800000
Cr       Cr   0.62500100  0.12500000  0.40690000  1.62000000
Cr       Cr   0.12500000  0.62500100  0.40690000  1.62000000
Cr       Cr   0.12500000  0.12500000  0.90690000  1.62000000
Cr       Cr   0.62500100  0.62500100  0.90690000  1.62000000
O        O    0.62500100  0.12500000  0.38050000 -1.28000000
O        O    0.12500000  0.62500100  0.38050000 -1.28000000
O        O    0.12500000  0.12500000  0.88050000 -1.28000000
O        O    0.62500100  0.62500100  0.88050000 -1.28000000
Cr       Cr   0.12500000  0.12500000  0.34309900  1.85900000
Cr       Cr   0.62500100  0.62500100  0.34309900  1.85900000
Cr       Cr   0.62500100  0.12500000  0.84310000  1.85900000
Cr       Cr   0.12500000  0.62500100  0.84310000  1.85900000
O        O    0.12500000  0.12500000  0.36950100 -1.28000000
O        O    0.62500100  0.62500100  0.36950100 -1.28000000
O        O    0.62500100  0.12500000  0.86950000 -1.28000000
O        O    0.12500000  0.62500100  0.86950000 -1.28000000
Cr       Cr   0.90690000  0.12500000  0.12500000  1.85900000
Cr       Cr   0.40690000  0.62500100  0.12500000  1.85900000
Cr       Cr   0.40690000  0.12500000  0.62500100  1.85900000
Cr       Cr   0.90690000  0.62500100  0.62500100  1.85900000
O        O    0.88050000  0.12500000  0.12500000 -1.28000000
O        O    0.38050000  0.62500100  0.12500000 -1.28000000
O        O    0.38050000  0.12500000  0.62500100 -1.28000000
O        O    0.88050000  0.62500100  0.62500100 -1.28000000
Cr       Cr   0.34309900  0.12500000  0.12500000  1.85900000
Cr       Cr   0.84310000  0.62500100  0.12500000  1.85900000
Cr       Cr   0.84310000  0.12500000  0.62500100  1.85900000
Cr       Cr   0.34309900  0.62500100  0.62500100  1.85900000
O        O    0.36950100  0.12500000  0.12500000 -1.28000000
O        O    0.86950000  0.62500100  0.12500000 -1.28000000
O        O    0.86950000  0.12500000  0.62500100 -1.28000000
O        O    0.36950100  0.62500100  0.62500100 -1.28000000
Cr       Cr   0.62500100  0.40690000  0.12500000  1.85900000
Cr       Cr   0.12500000  0.90690000  0.12500000  1.85900000
Cr       Cr   0.12500000  0.40690000  0.62500100  1.85900000
Cr       Cr   0.62500100  0.90690000  0.62500100  1.85900000
O        O    0.62500100  0.38050000  0.12500000 -1.28000000
O        O    0.12500000  0.88050000  0.12500000 -1.28000000
O        O    0.12500000  0.38050000  0.62500100 -1.28000000
O        O    0.62500100  0.88050000  0.62500100 -1.28000000
Cr       Cr   0.12500000  0.34309900  0.12500000  1.85900000
Cr       Cr   0.62500100  0.84310000  0.12500000  1.85900000
Cr       Cr   0.62500100  0.34309900  0.62500100  1.85900000
Cr       Cr   0.12500000  0.84310000  0.62500100  1.85900000
O        O    0.12500000  0.36950100  0.12500000 -1.28000000
O        O    0.62500100  0.86950000  0.12500000 -1.28000000
O        O    0.62500100  0.36950100  0.62500100 -1.28000000
O        O    0.12500000  0.86950000  0.62500100 -1.28000000
Cr       Cr   0.37499900  0.37499900  0.09309970  1.62000000
Cr       Cr   0.87500000  0.87500000  0.09309970  1.62000000
Cr       Cr   0.87500000  0.37499900  0.59310000  1.62000000
Cr       Cr   0.37499900  0.87500000  0.59310000  1.62000000
O        O    0.37499900  0.37499900  0.11950000 -1.28000000
O        O    0.87500000  0.87500000  0.11950000 -1.28000000
O        O    0.87500000  0.37499900  0.61950000 -1.28000000
O        O    0.37499900  0.87500000  0.61950000 -1.28000000
Cr       Cr   0.87500000  0.37499900  0.15690000  1.85900000
Cr       Cr   0.37499900  0.87500000  0.15690000  1.85900000
Cr       Cr   0.37499900  0.37499900  0.65690100  1.85900000
Cr       Cr   0.87500000  0.87500000  0.65690100  1.85900000
O        O    0.87500000  0.37499900  0.13050000 -1.28000000
O        O    0.37499900  0.87500000  0.13050000 -1.28000000
O        O    0.37499900  0.37499900  0.63049900 -1.28000000
O        O    0.87500000  0.87500000  0.63049900 -1.28000000
Cr       Cr   0.87500000  0.15690000  0.37499900  1.85900000
Cr       Cr   0.37499900  0.65690100  0.37499900  1.85900000
Cr       Cr   0.37499900  0.15690000  0.87500000  1.85900000
Cr       Cr   0.87500000  0.65690100  0.87500000  1.85900000
O        O    0.87500000  0.13050000  0.37499900 -1.28000000
O        O    0.37499900  0.63049900  0.37499900 -1.28000000
O        O    0.37499900  0.13050000  0.87500000 -1.28000000
O        O    0.87500000  0.63049900  0.87500000 -1.28000000
Cr       Cr   0.37499900  0.09309970  0.37499900  1.85900000
Cr       Cr   0.87500000  0.59310000  0.37499900  1.85900000
Cr       Cr   0.87500000  0.09309970  0.87500000  1.85900000
Cr       Cr   0.37499900  0.59310000  0.87500000  1.85900000
O        O    0.37499900  0.11950000  0.37499900 -1.28000000
O        O    0.87500000  0.61950000  0.37499900 -1.28000000
O        O    0.87500000  0.11950000  0.87500000 -1.28000000
O        O    0.37499900  0.61950000  0.87500000 -1.28000000
Cr       Cr   0.65690100  0.37499900  0.37499900  1.85900000
Cr       Cr   0.15690000  0.87500000  0.37499900  1.85900000
Cr       Cr   0.15690000  0.37499900  0.87500000  1.85900000
Cr       Cr   0.65690100  0.87500000  0.87500000  1.85900000
O        O    0.63049900  0.37499900  0.37499900 -1.28000000
O        O    0.13050000  0.87500000  0.37499900 -1.28000000
O        O    0.13050000  0.37499900  0.87500000 -1.28000000
O        O    0.63049900  0.87500000  0.87500000 -1.28000000
Cr       Cr   0.09309970  0.37499900  0.37499900  1.85900000
Cr       Cr   0.59310000  0.87500000  0.37499900  1.85900000
Cr       Cr   0.59310000  0.37499900  0.87500000  1.85900000
Cr       Cr   0.09309970  0.87500000  0.87500000  1.85900000
O        O    0.11950000  0.37499900  0.37499900 -1.28000000
O        O    0.61950000  0.87500000  0.37499900 -1.28000000
O        O    0.61950000  0.37499900  0.87500000 -1.28000000
O        O    0.11950000  0.87500000  0.87500000 -1.28000000
Cr       Cr   0.60935000  0.10934900  0.36510000  1.62000000
Cr       Cr   0.10934900  0.60935000  0.36510000  1.62000000
Cr       Cr   0.10934900  0.10934900  0.86510000  1.62000000
Cr       Cr   0.60935000  0.60935000  0.86510000  1.62000000
F        F    0.59119900  0.09120000  0.35650000 -0.56600000
F        F    0.09120000  0.59119900  0.35650000 -0.56600000
F        F    0.09120000  0.09120000  0.85650000 -0.56600000
F        F    0.59119900  0.59119900  0.85650000 -0.56600000
C        C    0.14760000  0.14760000  0.07740000  0.11000000
C        C    0.64760000  0.64760000  0.07740000  0.11000000
C        C    0.64760000  0.14760000  0.57740100  0.11000000
C        C    0.14760000  0.64760000  0.57740100  0.11000000
Cr       Cr   0.64064900  0.14065000  0.36510000  1.85900000
Cr       Cr   0.14065000  0.64064900  0.36510000  1.85900000
Cr       Cr   0.14065000  0.14065000  0.86510000  1.85900000
Cr       Cr   0.64064900  0.64064900  0.86510000  1.85900000
C        C    0.10239900  0.10239900  0.07740000  0.11000000
C        C    0.60240000  0.60240000  0.07740000  0.11000000
C        C    0.60240000  0.10239900  0.57740100  0.11000000
C        C    0.10239900  0.60240000  0.57740100  0.11000000
Cr       Cr   0.14065000  0.10934900  0.38490000  1.62000000
Cr       Cr   0.64064900  0.60935000  0.38490000  1.62000000
Cr       Cr   0.64064900  0.10934900  0.88490100  1.62000000
Cr       Cr   0.14065000  0.60935000  0.88490100  1.62000000
F        F    0.15880000  0.09120000  0.39350000 -0.56600000
F        F    0.65880000  0.59119900  0.39350000 -0.56600000
F        F    0.65880000  0.09120000  0.89349900 -0.56600000
F        F    0.15880000  0.59119900  0.89349900 -0.56600000
C        C    0.10239900  0.14760000  0.17260000  0.11000000
C        C    0.60240000  0.64760000  0.17260000  0.11000000
C        C    0.60240000  0.14760000  0.67260000  0.11000000
C        C    0.10239900  0.64760000  0.67260000  0.11000000
Cr       Cr   0.10934900  0.14065000  0.38490000  1.85900000
Cr       Cr   0.60935000  0.64064900  0.38490000  1.85900000
Cr       Cr   0.60935000  0.14065000  0.88490100  1.85900000
Cr       Cr   0.10934900  0.64064900  0.88490100  1.85900000
C        C    0.14760000  0.10239900  0.17260000  0.11000000
C        C    0.64760000  0.60240000  0.17260000  0.11000000
C        C    0.64760000  0.10239900  0.67260000  0.11000000
C        C    0.14760000  0.60240000  0.67260000  0.11000000
Cr       Cr   0.86510000  0.10934900  0.10934900  1.85900000
Cr       Cr   0.36510000  0.60935000  0.10934900  1.85900000
Cr       Cr   0.36510000  0.10934900  0.60935000  1.85900000
Cr       Cr   0.86510000  0.60935000  0.60935000  1.85900000
C        C    0.07740000  0.14760000  0.14760000  0.11000000
C        C    0.57740100  0.64760000  0.14760000  0.11000000
C        C    0.57740100  0.14760000  0.64760000  0.11000000
C        C    0.07740000  0.64760000  0.64760000  0.11000000
Cr       Cr   0.86510000  0.14065000  0.14065000  1.62000000
Cr       Cr   0.36510000  0.64064900  0.14065000  1.62000000
Cr       Cr   0.36510000  0.14065000  0.64064900  1.62000000
Cr       Cr   0.86510000  0.64064900  0.64064900  1.62000000
F        F    0.85650000  0.15880000  0.15880000 -0.56600000
F        F    0.35650000  0.65880000  0.15880000 -0.56600000
F        F    0.35650000  0.15880000  0.65880000 -0.56600000
F        F    0.85650000  0.65880000  0.65880000 -0.56600000
C        C    0.07740000  0.10239900  0.10239900  0.11000000
C        C    0.57740100  0.60240000  0.10239900  0.11000000
C        C    0.57740100  0.10239900  0.60240000  0.11000000
C        C    0.07740000  0.60240000  0.60240000  0.11000000
Cr       Cr   0.38490000  0.14065000  0.10934900  1.62000000
Cr       Cr   0.88490100  0.64064900  0.10934900  1.62000000
Cr       Cr   0.88490100  0.14065000  0.60935000  1.62000000
Cr       Cr   0.38490000  0.64064900  0.60935000  1.62000000
F        F    0.39350000  0.15880000  0.09120000 -0.56600000
F        F    0.89349900  0.65880000  0.09120000 -0.56600000
F        F    0.89349900  0.15880000  0.59119900 -0.56600000
F        F    0.39350000  0.65880000  0.59119900 -0.56600000
C        C    0.17260000  0.10239900  0.14760000  0.11000000
C        C    0.67260000  0.60240000  0.14760000  0.11000000
C        C    0.67260000  0.10239900  0.64760000  0.11000000
C        C    0.17260000  0.60240000  0.64760000  0.11000000
Cr       Cr   0.38490000  0.10934900  0.14065000  1.85900000
Cr       Cr   0.88490100  0.60935000  0.14065000  1.85900000
Cr       Cr   0.88490100  0.10934900  0.64064900  1.85900000
Cr       Cr   0.38490000  0.60935000  0.64064900  1.85900000
C        C    0.17260000  0.14760000  0.10239900  0.11000000
C        C    0.67260000  0.64760000  0.10239900  0.11000000
C        C    0.67260000  0.14760000  0.60240000  0.11000000
C        C    0.17260000  0.64760000  0.60240000  0.11000000
Cr       Cr   0.60935000  0.36510000  0.10934900  1.62000000
Cr       Cr   0.10934900  0.86510000  0.10934900  1.62000000
Cr       Cr   0.10934900  0.36510000  0.60935000  1.62000000
Cr       Cr   0.60935000  0.86510000  0.60935000  1.62000000
F        F    0.59119900  0.35650000  0.09120000 -0.56600000
F        F    0.09120000  0.85650000  0.09120000 -0.56600000
F        F    0.09120000  0.35650000  0.59119900 -0.56600000
F        F    0.59119900  0.85650000  0.59119900 -0.56600000
C        C    0.14760000  0.07740000  0.14760000  0.11000000
C        C    0.64760000  0.57740100  0.14760000  0.11000000
C        C    0.64760000  0.07740000  0.64760000  0.11000000
C        C    0.14760000  0.57740100  0.64760000  0.11000000
Cr       Cr   0.64064900  0.36510000  0.14065000  1.85900000
Cr       Cr   0.14065000  0.86510000  0.14065000  1.85900000
Cr       Cr   0.14065000  0.36510000  0.64064900  1.85900000
Cr       Cr   0.64064900  0.86510000  0.64064900  1.85900000
C        C    0.10239900  0.07740000  0.10239900  0.11000000
C        C    0.60240000  0.57740100  0.10239900  0.11000000
C        C    0.60240000  0.07740000  0.60240000  0.11000000
C        C    0.10239900  0.57740100  0.60240000  0.11000000
Cr       Cr   0.10934900  0.38490000  0.14065000  1.62000000
Cr       Cr   0.60935000  0.88490100  0.14065000  1.62000000
Cr       Cr   0.60935000  0.38490000  0.64064900  1.62000000
Cr       Cr   0.10934900  0.88490100  0.64064900  1.62000000
F        F    0.09120000  0.39350000  0.15880000 -0.56600000
F        F    0.59119900  0.89349900  0.15880000 -0.56600000
F        F    0.59119900  0.39350000  0.65880000 -0.56600000
F        F    0.09120000  0.89349900  0.65880000 -0.56600000
C        C    0.14760000  0.17260000  0.10239900  0.11000000
C        C    0.64760000  0.67260000  0.10239900  0.11000000
C        C    0.64760000  0.17260000  0.60240000  0.11000000
C        C    0.14760000  0.67260000  0.60240000  0.11000000
Cr       Cr   0.14065000  0.38490000  0.10934900  1.85900000
Cr       Cr   0.64064900  0.88490100  0.10934900  1.85900000
Cr       Cr   0.64064900  0.38490000  0.60935000  1.85900000
Cr       Cr   0.14065000  0.88490100  0.60935000  1.85900000
C        C    0.10239900  0.17260000  0.14760000  0.11000000
C        C    0.60240000  0.67260000  0.14760000  0.11000000
C        C    0.60240000  0.17260000  0.64760000  0.11000000
C        C    0.10239900  0.67260000  0.64760000  0.11000000
Cr       Cr   0.35935100  0.35935100  0.13490000  1.85900000
Cr       Cr   0.85935000  0.85935000  0.13490000  1.85900000
Cr       Cr   0.85935000  0.35935100  0.63490000  1.85900000
Cr       Cr   0.35935100  0.85935000  0.63490000  1.85900000
C        C    0.89760100  0.39760000  0.42259900  0.11000000
C        C    0.39760000  0.89760100  0.42259900  0.11000000
C        C    0.39760000  0.39760000  0.92260000  0.11000000
C        C    0.89760100  0.89760100  0.92260000  0.11000000
Cr       Cr   0.39065000  0.39065000  0.13490000  1.85900000
Cr       Cr   0.89065100  0.89065100  0.13490000  1.85900000
Cr       Cr   0.89065100  0.39065000  0.63490000  1.85900000
Cr       Cr   0.39065000  0.89065100  0.63490000  1.85900000
C        C    0.85240000  0.35240000  0.42259900  0.11000000
C        C    0.35240000  0.85240000  0.42259900  0.11000000
C        C    0.35240000  0.35240000  0.92260000  0.11000000
C        C    0.85240000  0.85240000  0.92260000  0.11000000
Cr       Cr   0.85935000  0.39065000  0.11509900  1.62000000
Cr       Cr   0.35935100  0.89065100  0.11509900  1.62000000
Cr       Cr   0.35935100  0.39065000  0.61510000  1.62000000
Cr       Cr   0.85935000  0.89065100  0.61510000  1.62000000
F        F    0.84120000  0.40880100  0.10650100 -0.56600000
F        F    0.34120000  0.90880000  0.10650100 -0.56600000
F        F    0.34120000  0.40880100  0.60650000 -0.56600000
F        F    0.84120000  0.90880000  0.60650000 -0.56600000
C        C    0.89760100  0.35240000  0.32740000  0.11000000
C        C    0.39760000  0.85240000  0.32740000  0.11000000
C        C    0.39760000  0.35240000  0.82740000  0.11000000
C        C    0.89760100  0.85240000  0.82740000  0.11000000
Cr       Cr   0.89065100  0.35935100  0.11509900  1.85900000
Cr       Cr   0.39065000  0.85935000  0.11509900  1.85900000
Cr       Cr   0.39065000  0.35935100  0.61510000  1.85900000
Cr       Cr   0.89065100  0.85935000  0.61510000  1.85900000
C        C    0.85240000  0.39760000  0.32740000  0.11000000
C        C    0.35240000  0.89760100  0.32740000  0.11000000
C        C    0.35240000  0.39760000  0.82740000  0.11000000
C        C    0.85240000  0.89760100  0.82740000  0.11000000
Cr       Cr   0.85935000  0.11509900  0.39065000  1.85900000
Cr       Cr   0.35935100  0.61510000  0.39065000  1.85900000
Cr       Cr   0.35935100  0.11509900  0.89065100  1.85900000
Cr       Cr   0.85935000  0.61510000  0.89065100  1.85900000
C        C    0.89760100  0.32740000  0.35240000  0.11000000
C        C    0.39760000  0.82740000  0.35240000  0.11000000
C        C    0.39760000  0.32740000  0.85240000  0.11000000
C        C    0.89760100  0.82740000  0.85240000  0.11000000
Cr       Cr   0.89065100  0.11509900  0.35935100  1.62000000
Cr       Cr   0.39065000  0.61510000  0.35935100  1.62000000
Cr       Cr   0.39065000  0.11509900  0.85935000  1.62000000
Cr       Cr   0.89065100  0.61510000  0.85935000  1.62000000
F        F    0.90880000  0.10650100  0.34120000 -0.56600000
F        F    0.40880100  0.60650000  0.34120000 -0.56600000
F        F    0.40880100  0.10650100  0.84120000 -0.56600000
F        F    0.90880000  0.60650000  0.84120000 -0.56600000
C        C    0.85240000  0.32740000  0.39760000  0.11000000
C        C    0.35240000  0.82740000  0.39760000  0.11000000
C        C    0.35240000  0.32740000  0.89760100  0.11000000
C        C    0.85240000  0.82740000  0.89760100  0.11000000
Cr       Cr   0.39065000  0.13490000  0.39065000  1.85900000
Cr       Cr   0.89065100  0.63490000  0.39065000  1.85900000
Cr       Cr   0.89065100  0.13490000  0.89065100  1.85900000
Cr       Cr   0.39065000  0.63490000  0.89065100  1.85900000
C        C    0.85240000  0.42259900  0.35240000  0.11000000
C        C    0.35240000  0.92260000  0.35240000  0.11000000
C        C    0.35240000  0.42259900  0.85240000  0.11000000
C        C    0.85240000  0.92260000  0.85240000  0.11000000
Cr       Cr   0.35935100  0.13490000  0.35935100  1.62000000
Cr       Cr   0.85935000  0.63490000  0.35935100  1.62000000
Cr       Cr   0.85935000  0.13490000  0.85935000  1.62000000
Cr       Cr   0.35935100  0.63490000  0.85935000  1.62000000
F        F    0.34120000  0.14350000  0.34120000 -0.56600000
F        F    0.84120000  0.64350000  0.34120000 -0.56600000
F        F    0.84120000  0.14350000  0.84120000 -0.56600000
F        F    0.34120000  0.64350000  0.84120000 -0.56600000
C        C    0.89760100  0.42259900  0.39760000  0.11000000
C        C    0.39760000  0.92260000  0.39760000  0.11000000
C        C    0.39760000  0.42259900  0.89760100  0.11000000
C        C    0.89760100  0.92260000  0.89760100  0.11000000
Cr       Cr   0.61510000  0.35935100  0.39065000  1.62000000
Cr       Cr   0.11509900  0.85935000  0.39065000  1.62000000
Cr       Cr   0.11509900  0.35935100  0.89065100  1.62000000
Cr       Cr   0.61510000  0.85935000  0.89065100  1.62000000
F        F    0.60650000  0.34120000  0.40880100 -0.56600000
F        F    0.10650100  0.84120000  0.40880100 -0.56600000
F        F    0.10650100  0.34120000  0.90880000 -0.56600000
F        F    0.60650000  0.84120000  0.90880000 -0.56600000
C        C    0.82740000  0.39760000  0.35240000  0.11000000
C        C    0.32740000  0.89760100  0.35240000  0.11000000
C        C    0.32740000  0.39760000  0.85240000  0.11000000
C        C    0.82740000  0.89760100  0.85240000  0.11000000
Cr       Cr   0.61510000  0.39065000  0.35935100  1.85900000
Cr       Cr   0.11509900  0.89065100  0.35935100  1.85900000
Cr       Cr   0.11509900  0.39065000  0.85935000  1.85900000
Cr       Cr   0.61510000  0.89065100  0.85935000  1.85900000
C        C    0.82740000  0.35240000  0.39760000  0.11000000
C        C    0.32740000  0.85240000  0.39760000  0.11000000
C        C    0.32740000  0.35240000  0.89760100  0.11000000
C        C    0.82740000  0.85240000  0.89760100  0.11000000
Cr       Cr   0.13490000  0.35935100  0.35935100  1.85900000
Cr       Cr   0.63490000  0.85935000  0.35935100  1.85900000
Cr       Cr   0.63490000  0.35935100  0.85935000  1.85900000
Cr       Cr   0.13490000  0.85935000  0.85935000  1.85900000
C        C    0.92260000  0.39760000  0.39760000  0.11000000
C        C    0.42259900  0.89760100  0.39760000  0.11000000
C        C    0.42259900  0.39760000  0.89760100  0.11000000
C        C    0.92260000  0.89760100  0.89760100  0.11000000
Cr       Cr   0.13490000  0.39065000  0.39065000  1.62000000
Cr       Cr   0.63490000  0.89065100  0.39065000  1.62000000
Cr       Cr   0.63490000  0.39065000  0.89065100  1.62000000
Cr       Cr   0.13490000  0.89065100  0.89065100  1.62000000
F        F    0.14350000  0.40880100  0.40880100 -0.56600000
F        F    0.64350000  0.90880000  0.40880100 -0.56600000
F        F    0.64350000  0.40880100  0.90880000 -0.56600000
F        F    0.14350000  0.90880000  0.90880000 -0.56600000
C        C    0.92260000  0.35240000  0.35240000  0.11000000
C        C    0.42259900  0.85240000  0.35240000  0.11000000
C        C    0.42259900  0.35240000  0.85240000  0.11000000
C        C    0.92260000  0.85240000  0.85240000  0.11000000
Cr       Cr   0.57730100  0.25000000  0.32730000  1.62000000
Cr       Cr   0.07729990  0.75000000  0.32730000  1.62000000
Cr       Cr   0.07729990  0.25000000  0.82730000  1.62000000
Cr       Cr   0.57730100  0.75000000  0.82730000  1.62000000
O        O    0.59650100  0.25000000  0.34650000 -1.28000000
O        O    0.09650000  0.75000000  0.34650000 -1.28000000
O        O    0.09650000  0.25000000  0.84650000 -1.28000000
O        O    0.59650100  0.75000000  0.84650000 -1.28000000
F        F    0.55750000  0.25000000  0.30750000 -0.56600000
F        F    0.05750030  0.75000000  0.30750000 -0.56600000
F        F    0.05750030  0.25000000  0.80750100 -0.56600000
F        F    0.55750000  0.75000000  0.80750100 -0.56600000
Cr       Cr   0.67270000  0.00000000  0.32730000  1.62000000
Cr       Cr   0.17270000  0.50000100  0.32730000  1.62000000
Cr       Cr   0.17270000  0.00000000  0.82730000  1.62000000
Cr       Cr   0.67270000  0.50000100  0.82730000  1.62000000
O        O    0.65350000  0.00000000  0.34650000 -1.28000000
O        O    0.15350000  0.50000100  0.34650000 -1.28000000
O        O    0.15350000  0.00000000  0.84650000 -1.28000000
O        O    0.65350000  0.50000100  0.84650000 -1.28000000
F        F    0.69250000  0.00000000  0.30750000 -0.56600000
F        F    0.19249900  0.50000100  0.30750000 -0.56600000
F        F    0.19249900  0.00000000  0.80750100 -0.56600000
F        F    0.69250000  0.50000100  0.80750100 -0.56600000
Cr       Cr   0.17270000  0.25000000  0.42269900  1.85900000
Cr       Cr   0.67270000  0.75000000  0.42269900  1.85900000
Cr       Cr   0.67270000  0.25000000  0.92270000  1.85900000
Cr       Cr   0.17270000  0.75000000  0.92270000  1.85900000
O        O    0.15350000  0.25000000  0.40350100 -1.28000000
O        O    0.65350000  0.75000000  0.40350100 -1.28000000
O        O    0.65350000  0.25000000  0.90350000 -1.28000000
O        O    0.15350000  0.75000000  0.90350000 -1.28000000
Cr       Cr   0.07729990  0.00000000  0.42269900  1.85900000
Cr       Cr   0.57730100  0.50000100  0.42269900  1.85900000
Cr       Cr   0.57730100  0.00000000  0.92270000  1.85900000
Cr       Cr   0.07729990  0.50000100  0.92270000  1.85900000
O        O    0.09650000  0.00000000  0.40350100 -1.28000000
O        O    0.59650100  0.50000100  0.40350100 -1.28000000
O        O    0.59650100  0.00000000  0.90350000 -1.28000000
O        O    0.09650000  0.50000100  0.90350000 -1.28000000
Cr       Cr   0.82730000  0.07729990  0.25000000  1.62000000
Cr       Cr   0.32730000  0.57730100  0.25000000  1.62000000
Cr       Cr   0.32730000  0.07729990  0.75000000  1.62000000
Cr       Cr   0.82730000  0.57730100  0.75000000  1.62000000
O        O    0.84650000  0.09650000  0.25000000 -1.28000000
O        O    0.34650000  0.59650100  0.25000000 -1.28000000
O        O    0.34650000  0.09650000  0.75000000 -1.28000000
O        O    0.84650000  0.59650100  0.75000000 -1.28000000
F        F    0.80750100  0.05750030  0.25000000 -0.56600000
F        F    0.30750000  0.55750000  0.25000000 -0.56600000
F        F    0.30750000  0.05750030  0.75000000 -0.56600000
F        F    0.80750100  0.55750000  0.75000000 -0.56600000
Cr       Cr   0.82730000  0.17270000  0.00000000  1.85900000
Cr       Cr   0.32730000  0.67270000  0.00000000  1.85900000
Cr       Cr   0.32730000  0.17270000  0.50000100  1.85900000
Cr       Cr   0.82730000  0.67270000  0.50000100  1.85900000
O        O    0.84650000  0.15350000  0.00000000 -1.28000000
O        O    0.34650000  0.65350000  0.00000000 -1.28000000
O        O    0.34650000  0.15350000  0.50000100 -1.28000000
O        O    0.84650000  0.65350000  0.50000100 -1.28000000
Cr       Cr   0.42269900  0.17270000  0.25000000  1.62000000
Cr       Cr   0.92270000  0.67270000  0.25000000  1.62000000
Cr       Cr   0.92270000  0.17270000  0.75000000  1.62000000
Cr       Cr   0.42269900  0.67270000  0.75000000  1.62000000
O        O    0.40350100  0.15350000  0.25000000 -1.28000000
O        O    0.90350000  0.65350000  0.25000000 -1.28000000
O        O    0.90350000  0.15350000  0.75000000 -1.28000000
O        O    0.40350100  0.65350000  0.75000000 -1.28000000
F        F    0.44250000  0.19249900  0.25000000 -0.56600000
F        F    0.94250000  0.69250000  0.25000000 -0.56600000
F        F    0.94250000  0.19249900  0.75000000 -0.56600000
F        F    0.44250000  0.69250000  0.75000000 -0.56600000
Cr       Cr   0.42269900  0.07729990  0.00000000  1.85900000
Cr       Cr   0.92270000  0.57730100  0.00000000  1.85900000
Cr       Cr   0.92270000  0.07729990  0.50000100  1.85900000
Cr       Cr   0.42269900  0.57730100  0.50000100  1.85900000
O        O    0.40350100  0.09650000  0.00000000 -1.28000000
O        O    0.90350000  0.59650100  0.00000000 -1.28000000
O        O    0.90350000  0.09650000  0.50000100 -1.28000000
O        O    0.40350100  0.59650100  0.50000100 -1.28000000
Cr       Cr   0.75000000  0.32730000  0.07729990  1.85900000
Cr       Cr   0.25000000  0.82730000  0.07729990  1.85900000
Cr       Cr   0.25000000  0.32730000  0.57730100  1.85900000
Cr       Cr   0.75000000  0.82730000  0.57730100  1.85900000
O        O    0.75000000  0.34650000  0.09650000 -1.28000000
O        O    0.25000000  0.84650000  0.09650000 -1.28000000
O        O    0.25000000  0.34650000  0.59650100 -1.28000000
O        O    0.75000000  0.84650000  0.59650100 -1.28000000
Cr       Cr   0.50000100  0.32730000  0.17270000  1.62000000
Cr       Cr   0.00000000  0.82730000  0.17270000  1.62000000
Cr       Cr   0.00000000  0.32730000  0.67270000  1.62000000
Cr       Cr   0.50000100  0.82730000  0.67270000  1.62000000
O        O    0.50000100  0.34650000  0.15350000 -1.28000000
O        O    0.00000000  0.84650000  0.15350000 -1.28000000
O        O    0.00000000  0.34650000  0.65350000 -1.28000000
O        O    0.50000100  0.84650000  0.65350000 -1.28000000
F        F    0.50000100  0.30750000  0.19249900 -0.56600000
F        F    0.00000000  0.80750100  0.19249900 -0.56600000
F        F    0.00000000  0.30750000  0.69250000 -0.56600000
F        F    0.50000100  0.80750100  0.69250000 -0.56600000
Cr       Cr   0.25000000  0.42269900  0.17270000  1.62000000
Cr       Cr   0.75000000  0.92270000  0.17270000  1.62000000
Cr       Cr   0.75000000  0.42269900  0.67270000  1.62000000
Cr       Cr   0.25000000  0.92270000  0.67270000  1.62000000
O        O    0.25000000  0.40350100  0.15350000 -1.28000000
O        O    0.75000000  0.90350000  0.15350000 -1.28000000
O        O    0.75000000  0.40350100  0.65350000 -1.28000000
O        O    0.25000000  0.90350000  0.65350000 -1.28000000
F        F    0.25000000  0.44250000  0.19249900 -0.56600000
F        F    0.75000000  0.94250000  0.19249900 -0.56600000
F        F    0.75000000  0.44250000  0.69250000 -0.56600000
F        F    0.25000000  0.94250000  0.69250000 -0.56600000
Cr       Cr   0.00000000  0.42269900  0.07729990  1.85900000
Cr       Cr   0.50000100  0.92270000  0.07729990  1.85900000
Cr       Cr   0.50000100  0.42269900  0.57730100  1.85900000
Cr       Cr   0.00000000  0.92270000  0.57730100  1.85900000
O        O    0.00000000  0.40350100  0.09650000 -1.28000000
O        O    0.50000100  0.90350000  0.09650000 -1.28000000
O        O    0.50000100  0.40350100  0.59650100 -1.28000000
O        O    0.00000000  0.90350000  0.59650100 -1.28000000
Cr       Cr   0.42269900  0.25000000  0.17270000  1.85900000
Cr       Cr   0.92270000  0.75000000  0.17270000  1.85900000
Cr       Cr   0.92270000  0.25000000  0.67270000  1.85900000
Cr       Cr   0.42269900  0.75000000  0.67270000  1.85900000
O        O    0.40350100  0.25000000  0.15350000 -1.28000000
O        O    0.90350000  0.75000000  0.15350000 -1.28000000
O        O    0.90350000  0.25000000  0.65350000 -1.28000000
O        O    0.40350100  0.75000000  0.65350000 -1.28000000
Cr       Cr   0.82730000  0.00000000  0.17270000  1.85900000
Cr       Cr   0.32730000  0.50000100  0.17270000  1.85900000
Cr       Cr   0.32730000  0.00000000  0.67270000  1.85900000
Cr       Cr   0.82730000  0.50000100  0.67270000  1.85900000
O        O    0.84650000  0.00000000  0.15350000 -1.28000000
O        O    0.34650000  0.50000100  0.15350000 -1.28000000
O        O    0.34650000  0.00000000  0.65350000 -1.28000000
O        O    0.84650000  0.50000100  0.65350000 -1.28000000
Cr       Cr   0.82730000  0.25000000  0.07729990  1.62000000
Cr       Cr   0.32730000  0.75000000  0.07729990  1.62000000
Cr       Cr   0.32730000  0.25000000  0.57730100  1.62000000
Cr       Cr   0.82730000  0.75000000  0.57730100  1.62000000
O        O    0.84650000  0.25000000  0.09650000 -1.28000000
O        O    0.34650000  0.75000000  0.09650000 -1.28000000
O        O    0.34650000  0.25000000  0.59650100 -1.28000000
O        O    0.84650000  0.75000000  0.59650100 -1.28000000
F        F    0.80750100  0.25000000  0.05750030 -0.56600000
F        F    0.30750000  0.75000000  0.05750030 -0.56600000
F        F    0.30750000  0.25000000  0.55750000 -0.56600000
F        F    0.80750100  0.75000000  0.55750000 -0.56600000
Cr       Cr   0.42269900  0.00000000  0.07729990  1.62000000
Cr       Cr   0.92270000  0.50000100  0.07729990  1.62000000
Cr       Cr   0.92270000  0.00000000  0.57730100  1.62000000
Cr       Cr   0.42269900  0.50000100  0.57730100  1.62000000
O        O    0.40350100  0.00000000  0.09650000 -1.28000000
O        O    0.90350000  0.50000100  0.09650000 -1.28000000
O        O    0.90350000  0.00000000  0.59650100 -1.28000000
O        O    0.40350100  0.50000100  0.59650100 -1.28000000
F        F    0.44250000  0.00000000  0.05750030 -0.56600000
F        F    0.94250000  0.50000100  0.05750030 -0.56600000
F        F    0.94250000  0.00000000  0.55750000 -0.56600000
F        F    0.44250000  0.50000100  0.55750000 -0.56600000
Cr       Cr   0.17270000  0.42269900  0.25000000  1.85900000
Cr       Cr   0.67270000  0.92270000  0.25000000  1.85900000
Cr       Cr   0.67270000  0.42269900  0.75000000  1.85900000
Cr       Cr   0.17270000  0.92270000  0.75000000  1.85900000
O        O    0.15350000  0.40350100  0.25000000 -1.28000000
O        O    0.65350000  0.90350000  0.25000000 -1.28000000
O        O    0.65350000  0.40350100  0.75000000 -1.28000000
O        O    0.15350000  0.90350000  0.75000000 -1.28000000
Cr       Cr   0.67270000  0.32730000  0.00000000  1.62000000
Cr       Cr   0.17270000  0.82730000  0.00000000  1.62000000
Cr       Cr   0.17270000  0.32730000  0.50000100  1.62000000
Cr       Cr   0.67270000  0.82730000  0.50000100  1.62000000
O        O    0.65350000  0.34650000  0.00000000 -1.28000000
O        O    0.15350000  0.84650000  0.00000000 -1.28000000
O        O    0.15350000  0.34650000  0.50000100 -1.28000000
O        O    0.65350000  0.84650000  0.50000100 -1.28000000
F        F    0.69250000  0.30750000  0.00000000 -0.56600000
F        F    0.19249900  0.80750100  0.00000000 -0.56600000
F        F    0.19249900  0.30750000  0.50000100 -0.56600000
F        F    0.69250000  0.80750100  0.50000100 -0.56600000
Cr       Cr   0.57730100  0.32730000  0.25000000  1.85900000
Cr       Cr   0.07729990  0.82730000  0.25000000  1.85900000
Cr       Cr   0.07729990  0.32730000  0.75000000  1.85900000
Cr       Cr   0.57730100  0.82730000  0.75000000  1.85900000
O        O    0.59650100  0.34650000  0.25000000 -1.28000000
O        O    0.09650000  0.84650000  0.25000000 -1.28000000
O        O    0.09650000  0.34650000  0.75000000 -1.28000000
O        O    0.59650100  0.84650000  0.75000000 -1.28000000
Cr       Cr   0.07729990  0.42269900  0.00000000  1.62000000
Cr       Cr   0.57730100  0.92270000  0.00000000  1.62000000
Cr       Cr   0.57730100  0.42269900  0.50000100  1.62000000
Cr       Cr   0.07729990  0.92270000  0.50000100  1.62000000
O        O    0.09650000  0.40350100  0.00000000 -1.28000000
O        O    0.59650100  0.90350000  0.00000000 -1.28000000
O        O    0.59650100  0.40350100  0.50000100 -1.28000000
O        O    0.09650000  0.90350000  0.50000100 -1.28000000
F        F    0.05750030  0.44250000  0.00000000 -0.56600000
F        F    0.55750000  0.94250000  0.00000000 -0.56600000
F        F    0.55750000  0.44250000  0.50000100 -0.56600000
F        F    0.05750030  0.94250000  0.50000100 -0.56600000
Cr       Cr   0.25000000  0.17270000  0.42269900  1.62000000
Cr       Cr   0.75000000  0.67270000  0.42269900  1.62000000
Cr       Cr   0.75000000  0.17270000  0.92270000  1.62000000
Cr       Cr   0.25000000  0.67270000  0.92270000  1.62000000
O        O    0.25000000  0.15350000  0.40350100 -1.28000000
O        O    0.75000000  0.65350000  0.40350100 -1.28000000
O        O    0.75000000  0.15350000  0.90350000 -1.28000000
O        O    0.25000000  0.65350000  0.90350000 -1.28000000
F        F    0.25000000  0.19249900  0.44250000 -0.56600000
F        F    0.75000000  0.69250000  0.44250000 -0.56600000
F        F    0.75000000  0.19249900  0.94250000 -0.56600000
F        F    0.25000000  0.69250000  0.94250000 -0.56600000
Cr       Cr   0.50000100  0.17270000  0.32730000  1.85900000
Cr       Cr   0.00000000  0.67270000  0.32730000  1.85900000
Cr       Cr   0.00000000  0.17270000  0.82730000  1.85900000
Cr       Cr   0.50000100  0.67270000  0.82730000  1.85900000
O        O    0.50000100  0.15350000  0.34650000 -1.28000000
O        O    0.00000000  0.65350000  0.34650000 -1.28000000
O        O    0.00000000  0.15350000  0.84650000 -1.28000000
O        O    0.50000100  0.65350000  0.84650000 -1.28000000
Cr       Cr   0.75000000  0.07729990  0.32730000  1.85900000
Cr       Cr   0.25000000  0.57730100  0.32730000  1.85900000
Cr       Cr   0.25000000  0.07729990  0.82730000  1.85900000
Cr       Cr   0.75000000  0.57730100  0.82730000  1.85900000
O        O    0.75000000  0.09650000  0.34650000 -1.28000000
O        O    0.25000000  0.59650100  0.34650000 -1.28000000
O        O    0.25000000  0.09650000  0.84650000 -1.28000000
O        O    0.75000000  0.59650100  0.84650000 -1.28000000
Cr       Cr   0.00000000  0.07729990  0.42269900  1.62000000
Cr       Cr   0.50000100  0.57730100  0.42269900  1.62000000
Cr       Cr   0.50000100  0.07729990  0.92270000  1.62000000
Cr       Cr   0.00000000  0.57730100  0.92270000  1.62000000
O        O    0.00000000  0.09650000  0.40350100 -1.28000000
O        O    0.50000100  0.59650100  0.40350100 -1.28000000
O        O    0.50000100  0.09650000  0.90350000 -1.28000000
O        O    0.00000000  0.59650100  0.90350000 -1.28000000
F        F    0.00000000  0.05750030  0.44250000 -0.56600000
F        F    0.50000100  0.55750000  0.44250000 -0.56600000
F        F    0.50000100  0.05750030  0.94250000 -0.56600000
F        F    0.00000000  0.55750000  0.94250000 -0.56600000
O        O    0.17040000  0.07960010  0.07960010 -1.28000000
O        O    0.67040000  0.57959900  0.07960010 -1.28000000
O        O    0.67040000  0.07960010  0.57959900 -1.28000000
O        O    0.17040000  0.57959900  0.57959900 -1.28000000
O        O    0.07960010  0.17040000  0.07960010 -1.28000000
O        O    0.57959900  0.67040000  0.07960010 -1.28000000
O        O    0.57959900  0.17040000  0.57959900 -1.28000000
O        O    0.07960010  0.67040000  0.57959900 -1.28000000
O        O    0.07960010  0.07960010  0.17040000 -1.28000000
O        O    0.57959900  0.57959900  0.17040000 -1.28000000
O        O    0.57959900  0.07960010  0.67040000 -1.28000000
O        O    0.07960010  0.57959900  0.67040000 -1.28000000
O        O    0.17040000  0.17040000  0.17040000 -1.28000000
O        O    0.67040000  0.67040000  0.17040000 -1.28000000
O        O    0.67040000  0.17040000  0.67040000 -1.28000000
O        O    0.17040000  0.67040000  0.67040000 -1.28000000
O        O    0.82960000  0.42040100  0.42040100 -1.28000000
O        O    0.32960000  0.92040000  0.42040100 -1.28000000
O        O    0.32960000  0.42040100  0.92040000 -1.28000000
O        O    0.82960000  0.92040000  0.92040000 -1.28000000
O        O    0.92040000  0.32960000  0.42040100 -1.28000000
O        O    0.42040100  0.82960000  0.42040100 -1.28000000
O        O    0.42040100  0.32960000  0.92040000 -1.28000000
O        O    0.92040000  0.82960000  0.92040000 -1.28000000
O        O    0.82960000  0.32960000  0.32960000 -1.28000000
O        O    0.32960000  0.82960000  0.32960000 -1.28000000
O        O    0.32960000  0.32960000  0.82960000 -1.28000000
O        O    0.82960000  0.82960000  0.82960000 -1.28000000
O        O    0.92040000  0.42040100  0.32960000 -1.28000000
O        O    0.42040100  0.92040000  0.32960000 -1.28000000
O        O    0.42040100  0.42040100  0.82960000 -1.28000000
O        O    0.92040000  0.92040000  0.82960000 -1.28000000
F        F    0.37499900  0.37499900  0.06520070 -0.56600000
F        F    0.87500000  0.87500000  0.06520070 -0.56600000
F        F    0.87500000  0.37499900  0.56520000 -0.56600000
F        F    0.37499900  0.87500000  0.56520000 -0.56600000
F        F    0.62500100  0.12500000  0.43480000 -0.56600000
F        F    0.12500000  0.62500100  0.43480000 -0.56600000
F        F    0.12500000  0.12500000  0.93480100 -0.56600000
F        F    0.62500100  0.62500100  0.93480100 -0.56600000
C        C    0.74560000  0.48260000  0.00440020 -0.27400000
C        C    0.24559900  0.98259900  0.00440020 -0.27400000
C        C    0.24559900  0.48260000  0.50440000 -0.27400000
C        C    0.74560000  0.98259900  0.50440000 -0.27400000
C        C    0.73229900  0.47760100  0.01769960  0.84800000
C        C    0.23230000  0.97760000  0.01769960  0.84800000
C        C    0.23230000  0.47760100  0.51770000  0.84800000
C        C    0.73229900  0.97760000  0.51770000  0.84800000
C        C    0.16160100  0.13610000  0.08840050 -0.27400000
C        C    0.66160000  0.63610000  0.08840050 -0.27400000
C        C    0.66160000  0.13610000  0.58840000 -0.27400000
C        C    0.16160100  0.63610000  0.58840000 -0.27400000
C        C    0.17190000  0.12290000  0.07809950  0.84800000
C        C    0.67189900  0.62290100  0.07809950  0.84800000
C        C    0.67189900  0.12290000  0.57810000  0.84800000
C        C    0.17190000  0.62290100  0.57810000  0.84800000
C        C    0.21479900  0.09260040  0.03520030 -0.27400000
C        C    0.71480000  0.59260000  0.03520030 -0.27400000
C        C    0.71480000  0.09260040  0.53520000 -0.27400000
C        C    0.21479900  0.59260000  0.53520000 -0.27400000
C        C    0.24210000  0.08669970  0.00790062  0.11000000
C        C    0.74210000  0.58670000  0.00790062  0.11000000
C        C    0.74210000  0.08669970  0.50790000  0.11000000
C        C    0.24210000  0.58670000  0.50790000  0.11000000
C        C    0.20080000  0.09480050  0.04920050  0.84800000
C        C    0.70080000  0.59480000  0.04920050  0.84800000
C        C    0.70080000  0.09480050  0.54920000  0.84800000
C        C    0.20080000  0.59480000  0.54920000  0.84800000
H        H    0.75247100  0.08684510  0.49753000  0.10000000
H        H    0.25247000  0.58684400  0.49753000  0.10000000
H        H    0.25247000  0.08684510  0.99753000  0.10000000
H        H    0.75247100  0.58684400  0.99753000  0.10000000
C        C    0.00440020  0.26740000  0.00440020 -0.27400000
C        C    0.50440000  0.76740000  0.00440020 -0.27400000
C        C    0.50440000  0.26740000  0.50440000 -0.27400000
C        C    0.00440020  0.76740000  0.50440000 -0.27400000
C        C    0.01769960  0.27240000  0.01769960  0.84800000
C        C    0.51770000  0.77240100  0.01769960  0.84800000
C        C    0.51770000  0.27240000  0.51770000  0.84800000
C        C    0.01769960  0.77240100  0.51770000  0.84800000
C        C    0.08840050  0.11390100  0.08840050 -0.27400000
C        C    0.58840000  0.61390000  0.08840050 -0.27400000
C        C    0.58840000  0.11390100  0.58840000 -0.27400000
C        C    0.08840050  0.61390000  0.58840000 -0.27400000
C        C    0.07809950  0.12710000  0.07809950  0.84800000
C        C    0.57810000  0.62710000  0.07809950  0.84800000
C        C    0.57810000  0.12710000  0.57810000  0.84800000
C        C    0.07809950  0.62710000  0.57810000  0.84800000
C        C    0.03520030  0.15740100  0.03520030 -0.27400000
C        C    0.53520000  0.65740000  0.03520030 -0.27400000
C        C    0.53520000  0.15740100  0.53520000 -0.27400000
C        C    0.03520030  0.65740000  0.53520000 -0.27400000
C        C    0.00790062  0.16330000  0.00790062  0.11000000
C        C    0.50790000  0.66330100  0.00790062  0.11000000
C        C    0.50790000  0.16330000  0.50790000  0.11000000
C        C    0.00790062  0.66330100  0.50790000  0.11000000
C        C    0.04920050  0.15520000  0.04920050  0.84800000
C        C    0.54920000  0.65520000  0.04920050  0.84800000
C        C    0.54920000  0.15520000  0.54920000  0.84800000
C        C    0.04920050  0.65520000  0.54920000  0.84800000
H        H    0.49753000  0.16315500  0.49753000  0.10000000
H        H    0.99753000  0.66315500  0.49753000  0.10000000
H        H    0.99753000  0.16315500  0.99753000  0.10000000
H        H    0.49753000  0.66315500  0.99753000  0.10000000
C        C    0.50440000  0.48260000  0.24559900 -0.27400000
C        C    0.00440020  0.98259900  0.24559900 -0.27400000
C        C    0.00440020  0.48260000  0.74560000 -0.27400000
C        C    0.50440000  0.98259900  0.74560000 -0.27400000
C        C    0.51770000  0.47760100  0.23230000  0.84800000
C        C    0.01769960  0.97760000  0.23230000  0.84800000
C        C    0.01769960  0.47760100  0.73229900  0.84800000
C        C    0.51770000  0.97760000  0.73229900  0.84800000
C        C    0.08840050  0.13610000  0.16160100 -0.27400000
C        C    0.58840000  0.63610000  0.16160100 -0.27400000
C        C    0.58840000  0.13610000  0.66160000 -0.27400000
C        C    0.08840050  0.63610000  0.66160000 -0.27400000
C        C    0.07809950  0.12290000  0.17190000  0.84800000
C        C    0.57810000  0.62290100  0.17190000  0.84800000
C        C    0.57810000  0.12290000  0.67189900  0.84800000
C        C    0.07809950  0.62290100  0.67189900  0.84800000
C        C    0.03520030  0.09260040  0.21479900 -0.27400000
C        C    0.53520000  0.59260000  0.21479900 -0.27400000
C        C    0.53520000  0.09260040  0.71480000 -0.27400000
C        C    0.03520030  0.59260000  0.71480000 -0.27400000
C        C    0.00790062  0.08669970  0.24210000  0.11000000
C        C    0.50790000  0.58670000  0.24210000  0.11000000
C        C    0.50790000  0.08669970  0.74210000  0.11000000
C        C    0.00790062  0.58670000  0.74210000  0.11000000
C        C    0.04920050  0.09480050  0.20080000  0.84800000
C        C    0.54920000  0.59480000  0.20080000  0.84800000
C        C    0.54920000  0.09480050  0.70080000  0.84800000
C        C    0.04920050  0.59480000  0.70080000  0.84800000
H        H    0.99753000  0.08684510  0.25247000  0.10000000
H        H    0.49753000  0.58684400  0.25247000  0.10000000
H        H    0.49753000  0.08684510  0.75247100  0.10000000
H        H    0.99753000  0.58684400  0.75247100  0.10000000
C        C    0.24559900  0.26740000  0.24559900 -0.27400000
C        C    0.74560000  0.76740000  0.24559900 -0.27400000
C        C    0.74560000  0.26740000  0.74560000 -0.27400000
C        C    0.24559900  0.76740000  0.74560000 -0.27400000
C        C    0.23230000  0.27240000  0.23230000  0.84800000
C        C    0.73229900  0.77240100  0.23230000  0.84800000
C        C    0.73229900  0.27240000  0.73229900  0.84800000
C        C    0.23230000  0.77240100  0.73229900  0.84800000
C        C    0.16160100  0.11390100  0.16160100 -0.27400000
C        C    0.66160000  0.61390000  0.16160100 -0.27400000
C        C    0.66160000  0.11390100  0.66160000 -0.27400000
C        C    0.16160100  0.61390000  0.66160000 -0.27400000
C        C    0.17190000  0.12710000  0.17190000  0.84800000
C        C    0.67189900  0.62710000  0.17190000  0.84800000
C        C    0.67189900  0.12710000  0.67189900  0.84800000
C        C    0.17190000  0.62710000  0.67189900  0.84800000
C        C    0.21479900  0.15740100  0.21479900 -0.27400000
C        C    0.71480000  0.65740000  0.21479900 -0.27400000
C        C    0.71480000  0.15740100  0.71480000 -0.27400000
C        C    0.21479900  0.65740000  0.71480000 -0.27400000
C        C    0.24210000  0.16330000  0.24210000  0.11000000
C        C    0.74210000  0.66330100  0.24210000  0.11000000
C        C    0.74210000  0.16330000  0.74210000  0.11000000
C        C    0.24210000  0.66330100  0.74210000  0.11000000
C        C    0.20080000  0.15520000  0.20080000  0.84800000
C        C    0.70080000  0.65520000  0.20080000  0.84800000
C        C    0.70080000  0.15520000  0.70080000  0.84800000
C        C    0.20080000  0.65520000  0.70080000  0.84800000
H        H    0.25247000  0.16315500  0.25247000  0.10000000
H        H    0.75247100  0.66315500  0.25247000  0.10000000
H        H    0.75247100  0.16315500  0.75247100  0.10000000
H        H    0.25247000  0.66315500  0.75247100  0.10000000
C        C    0.50440000  0.24559900  0.48260000 -0.27400000
C        C    0.00440020  0.74560000  0.48260000 -0.27400000
C        C    0.00440020  0.24559900  0.98259900 -0.27400000
C        C    0.50440000  0.74560000  0.98259900 -0.27400000
C        C    0.51770000  0.23230000  0.47760100  0.84800000
C        C    0.01769960  0.73229900  0.47760100  0.84800000
C        C    0.01769960  0.23230000  0.97760000  0.84800000
C        C    0.51770000  0.73229900  0.97760000  0.84800000
C        C    0.08840050  0.16160100  0.13610000 -0.27400000
C        C    0.58840000  0.66160000  0.13610000 -0.27400000
C        C    0.58840000  0.16160100  0.63610000 -0.27400000
C        C    0.08840050  0.66160000  0.63610000 -0.27400000
C        C    0.07809950  0.17190000  0.12290000  0.84800000
C        C    0.57810000  0.67189900  0.12290000  0.84800000
C        C    0.57810000  0.17190000  0.62290100  0.84800000
C        C    0.07809950  0.67189900  0.62290100  0.84800000
C        C    0.03520030  0.21479900  0.09260040 -0.27400000
C        C    0.53520000  0.71480000  0.09260040 -0.27400000
C        C    0.53520000  0.21479900  0.59260000 -0.27400000
C        C    0.03520030  0.71480000  0.59260000 -0.27400000
C        C    0.00790062  0.24210000  0.08669970  0.11000000
C        C    0.50790000  0.74210000  0.08669970  0.11000000
C        C    0.50790000  0.24210000  0.58670000  0.11000000
C        C    0.00790062  0.74210000  0.58670000  0.11000000
C        C    0.04920050  0.20080000  0.09480050  0.84800000
C        C    0.54920000  0.70080000  0.09480050  0.84800000
C        C    0.54920000  0.20080000  0.59480000  0.84800000
C        C    0.04920050  0.70080000  0.59480000  0.84800000
H        H    0.99753000  0.25247000  0.08684510  0.10000000
H        H    0.49753000  0.75247100  0.08684510  0.10000000
H        H    0.49753000  0.25247000  0.58684400  0.10000000
H        H    0.99753000  0.75247100  0.58684400  0.10000000
C        C    0.00440020  0.00440020  0.26740000 -0.27400000
C        C    0.50440000  0.50440000  0.26740000 -0.27400000
C        C    0.50440000  0.00440020  0.76740000 -0.27400000
C        C    0.00440020  0.50440000  0.76740000 -0.27400000
C        C    0.01769960  0.01769960  0.27240000  0.84800000
C        C    0.51770000  0.51770000  0.27240000  0.84800000
C        C    0.51770000  0.01769960  0.77240100  0.84800000
C        C    0.01769960  0.51770000  0.77240100  0.84800000
C        C    0.08840050  0.08840050  0.11390100 -0.27400000
C        C    0.58840000  0.58840000  0.11390100 -0.27400000
C        C    0.58840000  0.08840050  0.61390000 -0.27400000
C        C    0.08840050  0.58840000  0.61390000 -0.27400000
C        C    0.07809950  0.07809950  0.12710000  0.84800000
C        C    0.57810000  0.57810000  0.12710000  0.84800000
C        C    0.57810000  0.07809950  0.62710000  0.84800000
C        C    0.07809950  0.57810000  0.62710000  0.84800000
C        C    0.03520030  0.03520030  0.15740100 -0.27400000
C        C    0.53520000  0.53520000  0.15740100 -0.27400000
C        C    0.53520000  0.03520030  0.65740000 -0.27400000
C        C    0.03520030  0.53520000  0.65740000 -0.27400000
C        C    0.00790062  0.00790062  0.16330000  0.11000000
C        C    0.50790000  0.50790000  0.16330000  0.11000000
C        C    0.50790000  0.00790062  0.66330100  0.11000000
C        C    0.00790062  0.50790000  0.66330100  0.11000000
C        C    0.04920050  0.04920050  0.15520000  0.84800000
C        C    0.54920000  0.54920000  0.15520000  0.84800000
C        C    0.54920000  0.04920050  0.65520000  0.84800000
C        C    0.04920050  0.54920000  0.65520000  0.84800000
H        H    0.49753000  0.49753000  0.16315500  0.10000000
H        H    0.99753000  0.99753000  0.16315500  0.10000000
H        H    0.99753000  0.49753000  0.66315500  0.10000000
H        H    0.49753000  0.99753000  0.66315500  0.10000000
C        C    0.74560000  0.00440020  0.48260000 -0.27400000
C        C    0.24559900  0.50440000  0.48260000 -0.27400000
C        C    0.24559900  0.00440020  0.98259900 -0.27400000
C        C    0.74560000  0.50440000  0.98259900 -0.27400000
C        C    0.73229900  0.01769960  0.47760100  0.84800000
C        C    0.23230000  0.51770000  0.47760100  0.84800000
C        C    0.23230000  0.01769960  0.97760000  0.84800000
C        C    0.73229900  0.51770000  0.97760000  0.84800000
C        C    0.16160100  0.08840050  0.13610000 -0.27400000
C        C    0.66160000  0.58840000  0.13610000 -0.27400000
C        C    0.66160000  0.08840050  0.63610000 -0.27400000
C        C    0.16160100  0.58840000  0.63610000 -0.27400000
C        C    0.17190000  0.07809950  0.12290000  0.84800000
C        C    0.67189900  0.57810000  0.12290000  0.84800000
C        C    0.67189900  0.07809950  0.62290100  0.84800000
C        C    0.17190000  0.57810000  0.62290100  0.84800000
C        C    0.21479900  0.03520030  0.09260040 -0.27400000
C        C    0.71480000  0.53520000  0.09260040 -0.27400000
C        C    0.71480000  0.03520030  0.59260000 -0.27400000
C        C    0.21479900  0.53520000  0.59260000 -0.27400000
C        C    0.24210000  0.00790062  0.08669970  0.11000000
C        C    0.74210000  0.50790000  0.08669970  0.11000000
C        C    0.74210000  0.00790062  0.58670000  0.11000000
C        C    0.24210000  0.50790000  0.58670000  0.11000000
C        C    0.20080000  0.04920050  0.09480050  0.84800000
C        C    0.70080000  0.54920000  0.09480050  0.84800000
C        C    0.70080000  0.04920050  0.59480000  0.84800000
C        C    0.20080000  0.54920000  0.59480000  0.84800000
H        H    0.75247100  0.49753000  0.08684510  0.10000000
H        H    0.25247000  0.99753000  0.08684510  0.10000000
H        H    0.25247000  0.49753000  0.58684400  0.10000000
H        H    0.75247100  0.99753000  0.58684400  0.10000000
C        C    0.24559900  0.24559900  0.26740000 -0.27400000
C        C    0.74560000  0.74560000  0.26740000 -0.27400000
C        C    0.74560000  0.24559900  0.76740000 -0.27400000
C        C    0.24559900  0.74560000  0.76740000 -0.27400000
C        C    0.23230000  0.23230000  0.27240000  0.84800000
C        C    0.73229900  0.73229900  0.27240000  0.84800000
C        C    0.73229900  0.23230000  0.77240100  0.84800000
C        C    0.23230000  0.73229900  0.77240100  0.84800000
C        C    0.16160100  0.16160100  0.11390100 -0.27400000
C        C    0.66160000  0.66160000  0.11390100 -0.27400000
C        C    0.66160000  0.16160100  0.61390000 -0.27400000
C        C    0.16160100  0.66160000  0.61390000 -0.27400000
C        C    0.17190000  0.17190000  0.12710000  0.84800000
C        C    0.67189900  0.67189900  0.12710000  0.84800000
C        C    0.67189900  0.17190000  0.62710000  0.84800000
C        C    0.17190000  0.67189900  0.62710000  0.84800000
C        C    0.21479900  0.21479900  0.15740100 -0.27400000
C        C    0.71480000  0.71480000  0.15740100 -0.27400000
C        C    0.71480000  0.21479900  0.65740000 -0.27400000
C        C    0.21479900  0.71480000  0.65740000 -0.27400000
C        C    0.24210000  0.24210000  0.16330000  0.11000000
C        C    0.74210000  0.74210000  0.16330000  0.11000000
C        C    0.74210000  0.24210000  0.66330100  0.11000000
C        C    0.24210000  0.74210000  0.66330100  0.11000000
C        C    0.20080000  0.20080000  0.15520000  0.84800000
C        C    0.70080000  0.70080000  0.15520000  0.84800000
C        C    0.70080000  0.20080000  0.65520000  0.84800000
C        C    0.20080000  0.70080000  0.65520000  0.84800000
H        H    0.25247000  0.25247000  0.16315500  0.10000000
H        H    0.75247100  0.75247100  0.16315500  0.10000000
H        H    0.75247100  0.25247000  0.66315500  0.10000000
H        H    0.25247000  0.75247100  0.66315500  0.10000000
C        C    0.98259900  0.00440020  0.24559900 -0.27400000
C        C    0.48260000  0.50440000  0.24559900 -0.27400000
C        C    0.48260000  0.00440020  0.74560000 -0.27400000
C        C    0.98259900  0.50440000  0.74560000 -0.27400000
C        C    0.97760000  0.01769960  0.23230000  0.84800000
C        C    0.47760100  0.51770000  0.23230000  0.84800000
C        C    0.47760100  0.01769960  0.73229900  0.84800000
C        C    0.97760000  0.51770000  0.73229900  0.84800000
C        C    0.13610000  0.08840050  0.16160100 -0.27400000
C        C    0.63610000  0.58840000  0.16160100 -0.27400000
C        C    0.63610000  0.08840050  0.66160000 -0.27400000
C        C    0.13610000  0.58840000  0.66160000 -0.27400000
C        C    0.12290000  0.07809950  0.17190000  0.84800000
C        C    0.62290100  0.57810000  0.17190000  0.84800000
C        C    0.62290100  0.07809950  0.67189900  0.84800000
C        C    0.12290000  0.57810000  0.67189900  0.84800000
C        C    0.09260040  0.03520030  0.21479900 -0.27400000
C        C    0.59260000  0.53520000  0.21479900 -0.27400000
C        C    0.59260000  0.03520030  0.71480000 -0.27400000
C        C    0.09260040  0.53520000  0.71480000 -0.27400000
C        C    0.08669970  0.00790062  0.24210000  0.11000000
C        C    0.58670000  0.50790000  0.24210000  0.11000000
C        C    0.58670000  0.00790062  0.74210000  0.11000000
C        C    0.08669970  0.50790000  0.74210000  0.11000000
C        C    0.09480050  0.04920050  0.20080000  0.84800000
C        C    0.59480000  0.54920000  0.20080000  0.84800000
C        C    0.59480000  0.04920050  0.70080000  0.84800000
C        C    0.09480050  0.54920000  0.70080000  0.84800000
H        H    0.58684400  0.49753000  0.25247000  0.10000000
H        H    0.08684510  0.99753000  0.25247000  0.10000000
H        H    0.08684510  0.49753000  0.75247100  0.10000000
H        H    0.58684400  0.99753000  0.75247100  0.10000000
C        C    0.26740000  0.00440020  0.00440020 -0.27400000
C        C    0.76740000  0.50440000  0.00440020 -0.27400000
C        C    0.76740000  0.00440020  0.50440000 -0.27400000
C        C    0.26740000  0.50440000  0.50440000 -0.27400000
C        C    0.27240000  0.01769960  0.01769960  0.84800000
C        C    0.77240100  0.51770000  0.01769960  0.84800000
C        C    0.77240100  0.01769960  0.51770000  0.84800000
C        C    0.27240000  0.51770000  0.51770000  0.84800000
C        C    0.11390100  0.08840050  0.08840050 -0.27400000
C        C    0.61390000  0.58840000  0.08840050 -0.27400000
C        C    0.61390000  0.08840050  0.58840000 -0.27400000
C        C    0.11390100  0.58840000  0.58840000 -0.27400000
C        C    0.12710000  0.07809950  0.07809950  0.84800000
C        C    0.62710000  0.57810000  0.07809950  0.84800000
C        C    0.62710000  0.07809950  0.57810000  0.84800000
C        C    0.12710000  0.57810000  0.57810000  0.84800000
C        C    0.15740100  0.03520030  0.03520030 -0.27400000
C        C    0.65740000  0.53520000  0.03520030 -0.27400000
C        C    0.65740000  0.03520030  0.53520000 -0.27400000
C        C    0.15740100  0.53520000  0.53520000 -0.27400000
C        C    0.16330000  0.00790062  0.00790062  0.11000000
C        C    0.66330100  0.50790000  0.00790062  0.11000000
C        C    0.66330100  0.00790062  0.50790000  0.11000000
C        C    0.16330000  0.50790000  0.50790000  0.11000000
C        C    0.15520000  0.04920050  0.04920050  0.84800000
C        C    0.65520000  0.54920000  0.04920050  0.84800000
C        C    0.65520000  0.04920050  0.54920000  0.84800000
C        C    0.15520000  0.54920000  0.54920000  0.84800000
H        H    0.16315500  0.49753000  0.49753000  0.10000000
H        H    0.66315500  0.99753000  0.49753000  0.10000000
H        H    0.66315500  0.49753000  0.99753000  0.10000000
H        H    0.16315500  0.99753000  0.99753000  0.10000000
C        C    0.98259900  0.24559900  0.00440020 -0.27400000
C        C    0.48260000  0.74560000  0.00440020 -0.27400000
C        C    0.48260000  0.24559900  0.50440000 -0.27400000
C        C    0.98259900  0.74560000  0.50440000 -0.27400000
C        C    0.97760000  0.23230000  0.01769960  0.84800000
C        C    0.47760100  0.73229900  0.01769960  0.84800000
C        C    0.47760100  0.23230000  0.51770000  0.84800000
C        C    0.97760000  0.73229900  0.51770000  0.84800000
C        C    0.13610000  0.16160100  0.08840050 -0.27400000
C        C    0.63610000  0.66160000  0.08840050 -0.27400000
C        C    0.63610000  0.16160100  0.58840000 -0.27400000
C        C    0.13610000  0.66160000  0.58840000 -0.27400000
C        C    0.12290000  0.17190000  0.07809950  0.84800000
C        C    0.62290100  0.67189900  0.07809950  0.84800000
C        C    0.62290100  0.17190000  0.57810000  0.84800000
C        C    0.12290000  0.67189900  0.57810000  0.84800000
C        C    0.09260040  0.21479900  0.03520030 -0.27400000
C        C    0.59260000  0.71480000  0.03520030 -0.27400000
C        C    0.59260000  0.21479900  0.53520000 -0.27400000
C        C    0.09260040  0.71480000  0.53520000 -0.27400000
C        C    0.08669970  0.24210000  0.00790062  0.11000000
C        C    0.58670000  0.74210000  0.00790062  0.11000000
C        C    0.58670000  0.24210000  0.50790000  0.11000000
C        C    0.08669970  0.74210000  0.50790000  0.11000000
C        C    0.09480050  0.20080000  0.04920050  0.84800000
C        C    0.59480000  0.70080000  0.04920050  0.84800000
C        C    0.59480000  0.20080000  0.54920000  0.84800000
C        C    0.09480050  0.70080000  0.54920000  0.84800000
H        H    0.58684400  0.25247000  0.49753000  0.10000000
H        H    0.08684510  0.75247100  0.49753000  0.10000000
H        H    0.08684510  0.25247000  0.99753000  0.10000000
H        H    0.58684400  0.75247100  0.99753000  0.10000000
C        C    0.26740000  0.24559900  0.24559900 -0.27400000
C        C    0.76740000  0.74560000  0.24559900 -0.27400000
C        C    0.76740000  0.24559900  0.74560000 -0.27400000
C        C    0.26740000  0.74560000  0.74560000 -0.27400000
C        C    0.27240000  0.23230000  0.23230000  0.84800000
C        C    0.77240100  0.73229900  0.23230000  0.84800000
C        C    0.77240100  0.23230000  0.73229900  0.84800000
C        C    0.27240000  0.73229900  0.73229900  0.84800000
C        C    0.11390100  0.16160100  0.16160100 -0.27400000
C        C    0.61390000  0.66160000  0.16160100 -0.27400000
C        C    0.61390000  0.16160100  0.66160000 -0.27400000
C        C    0.11390100  0.66160000  0.66160000 -0.27400000
C        C    0.12710000  0.17190000  0.17190000  0.84800000
C        C    0.62710000  0.67189900  0.17190000  0.84800000
C        C    0.62710000  0.17190000  0.67189900  0.84800000
C        C    0.12710000  0.67189900  0.67189900  0.84800000
C        C    0.15740100  0.21479900  0.21479900 -0.27400000
C        C    0.65740000  0.71480000  0.21479900 -0.27400000
C        C    0.65740000  0.21479900  0.71480000 -0.27400000
C        C    0.15740100  0.71480000  0.71480000 -0.27400000
C        C    0.16330000  0.24210000  0.24210000  0.11000000
C        C    0.66330100  0.74210000  0.24210000  0.11000000
C        C    0.66330100  0.24210000  0.74210000  0.11000000
C        C    0.16330000  0.74210000  0.74210000  0.11000000
C        C    0.15520000  0.20080000  0.20080000  0.84800000
C        C    0.65520000  0.70080000  0.20080000  0.84800000
C        C    0.65520000  0.20080000  0.70080000  0.84800000
C        C    0.15520000  0.70080000  0.70080000  0.84800000
H        H    0.16315500  0.25247000  0.25247000  0.10000000
H        H    0.66315500  0.75247100  0.25247000  0.10000000
H        H    0.66315500  0.25247000  0.75247100  0.10000000
H        H    0.16315500  0.75247100  0.75247100  0.10000000
C        C    0.73260000  0.49560000  0.49560000 -0.27400000
C        C    0.23260000  0.99560000  0.49560000 -0.27400000
C        C    0.23260000  0.49560000  0.99560000 -0.27400000
C        C    0.73260000  0.99560000  0.99560000 -0.27400000
C        C    0.72760000  0.48230000  0.48230000  0.84800000
C        C    0.22759900  0.98230000  0.48230000  0.84800000
C        C    0.22759900  0.48230000  0.98230000  0.84800000
C        C    0.72760000  0.98230000  0.98230000  0.84800000
C        C    0.88609900  0.41160000  0.41160000 -0.27400000
C        C    0.38610000  0.91160000  0.41160000 -0.27400000
C        C    0.38610000  0.41160000  0.91160000 -0.27400000
C        C    0.88609900  0.91160000  0.91160000 -0.27400000
C        C    0.87290000  0.42190000  0.42190000  0.84800000
C        C    0.37290000  0.92190000  0.42190000  0.84800000
C        C    0.37290000  0.42190000  0.92190000  0.84800000
C        C    0.87290000  0.92190000  0.92190000  0.84800000
C        C    0.84259900  0.46480000  0.46480000 -0.27400000
C        C    0.34260000  0.96480000  0.46480000 -0.27400000
C        C    0.34260000  0.46480000  0.96480000 -0.27400000
C        C    0.84259900  0.96480000  0.96480000 -0.27400000
C        C    0.83670000  0.49210000  0.49210000  0.11000000
C        C    0.33669900  0.99209900  0.49210000  0.11000000
C        C    0.33669900  0.49210000  0.99209900  0.11000000
C        C    0.83670000  0.99209900  0.99209900  0.11000000
C        C    0.84480000  0.45080000  0.45080000  0.84800000
C        C    0.34480000  0.95079900  0.45080000  0.84800000
C        C    0.34480000  0.45080000  0.95079900  0.84800000
C        C    0.84480000  0.95079900  0.95079900  0.84800000
H        H    0.83684500  0.00247031  0.00247031  0.10000000
H        H    0.33684500  0.50247000  0.00247031  0.10000000
H        H    0.33684500  0.00247031  0.50247000  0.10000000
H        H    0.83684500  0.50247000  0.50247000  0.10000000
C        C    0.01740060  0.25440000  0.49560000 -0.27400000
C        C    0.51740000  0.75440100  0.49560000 -0.27400000
C        C    0.51740000  0.25440000  0.99560000 -0.27400000
C        C    0.01740060  0.75440100  0.99560000 -0.27400000
C        C    0.02240020  0.26770100  0.48230000  0.84800000
C        C    0.52239900  0.76770000  0.48230000  0.84800000
C        C    0.52239900  0.26770100  0.98230000  0.84800000
C        C    0.02240020  0.76770000  0.98230000  0.84800000
C        C    0.86390000  0.33840000  0.41160000 -0.27400000
C        C    0.36390000  0.83839900  0.41160000 -0.27400000
C        C    0.36390000  0.33840000  0.91160000 -0.27400000
C        C    0.86390000  0.83839900  0.91160000 -0.27400000
C        C    0.87710000  0.32810100  0.42190000  0.84800000
C        C    0.37709900  0.82810000  0.42190000  0.84800000
C        C    0.37709900  0.32810100  0.92190000  0.84800000
C        C    0.87710000  0.82810000  0.92190000  0.84800000
C        C    0.90740000  0.28520000  0.46480000 -0.27400000
C        C    0.40740000  0.78520100  0.46480000 -0.27400000
C        C    0.40740000  0.28520000  0.96480000 -0.27400000
C        C    0.90740000  0.78520100  0.96480000 -0.27400000
C        C    0.91330000  0.25790000  0.49210000  0.11000000
C        C    0.41330000  0.75790000  0.49210000  0.11000000
C        C    0.41330000  0.25790000  0.99209900  0.11000000
C        C    0.91330000  0.75790000  0.99209900  0.11000000
C        C    0.90519900  0.29920000  0.45080000  0.84800000
C        C    0.40520000  0.79920000  0.45080000  0.84800000
C        C    0.40520000  0.29920000  0.95079900  0.84800000
C        C    0.90519900  0.79920000  0.95079900  0.84800000
H        H    0.41315600  0.24752900  0.00247031  0.10000000
H        H    0.91315500  0.74753000  0.00247031  0.10000000
H        H    0.91315500  0.24752900  0.50247000  0.10000000
H        H    0.41315600  0.74753000  0.50247000  0.10000000
C        C    0.73260000  0.25440000  0.25440000 -0.27400000
C        C    0.23260000  0.75440100  0.25440000 -0.27400000
C        C    0.23260000  0.25440000  0.75440100 -0.27400000
C        C    0.73260000  0.75440100  0.75440100 -0.27400000
C        C    0.72760000  0.26770100  0.26770100  0.84800000
C        C    0.22759900  0.76770000  0.26770100  0.84800000
C        C    0.22759900  0.26770100  0.76770000  0.84800000
C        C    0.72760000  0.76770000  0.76770000  0.84800000
C        C    0.88609900  0.33840000  0.33840000 -0.27400000
C        C    0.38610000  0.83839900  0.33840000 -0.27400000
C        C    0.38610000  0.33840000  0.83839900 -0.27400000
C        C    0.88609900  0.83839900  0.83839900 -0.27400000
C        C    0.87290000  0.32810100  0.32810100  0.84800000
C        C    0.37290000  0.82810000  0.32810100  0.84800000
C        C    0.37290000  0.32810100  0.82810000  0.84800000
C        C    0.87290000  0.82810000  0.82810000  0.84800000
C        C    0.84259900  0.28520000  0.28520000 -0.27400000
C        C    0.34260000  0.78520100  0.28520000 -0.27400000
C        C    0.34260000  0.28520000  0.78520100 -0.27400000
C        C    0.84259900  0.78520100  0.78520100 -0.27400000
C        C    0.83670000  0.25790000  0.25790000  0.11000000
C        C    0.33669900  0.75790000  0.25790000  0.11000000
C        C    0.33669900  0.25790000  0.75790000  0.11000000
C        C    0.83670000  0.75790000  0.75790000  0.11000000
C        C    0.84480000  0.29920000  0.29920000  0.84800000
C        C    0.34480000  0.79920000  0.29920000  0.84800000
C        C    0.34480000  0.29920000  0.79920000  0.84800000
C        C    0.84480000  0.79920000  0.79920000  0.84800000
H        H    0.83684500  0.24752900  0.24752900  0.10000000
H        H    0.33684500  0.74753000  0.24752900  0.10000000
H        H    0.33684500  0.24752900  0.74753000  0.10000000
H        H    0.83684500  0.74753000  0.74753000  0.10000000
C        C    0.01740060  0.49560000  0.25440000 -0.27400000
C        C    0.51740000  0.99560000  0.25440000 -0.27400000
C        C    0.51740000  0.49560000  0.75440100 -0.27400000
C        C    0.01740060  0.99560000  0.75440100 -0.27400000
C        C    0.02240020  0.48230000  0.26770100  0.84800000
C        C    0.52239900  0.98230000  0.26770100  0.84800000
C        C    0.52239900  0.48230000  0.76770000  0.84800000
C        C    0.02240020  0.98230000  0.76770000  0.84800000
C        C    0.86390000  0.41160000  0.33840000 -0.27400000
C        C    0.36390000  0.91160000  0.33840000 -0.27400000
C        C    0.36390000  0.41160000  0.83839900 -0.27400000
C        C    0.86390000  0.91160000  0.83839900 -0.27400000
C        C    0.87710000  0.42190000  0.32810100  0.84800000
C        C    0.37709900  0.92190000  0.32810100  0.84800000
C        C    0.37709900  0.42190000  0.82810000  0.84800000
C        C    0.87710000  0.92190000  0.82810000  0.84800000
C        C    0.90740000  0.46480000  0.28520000 -0.27400000
C        C    0.40740000  0.96480000  0.28520000 -0.27400000
C        C    0.40740000  0.46480000  0.78520100 -0.27400000
C        C    0.90740000  0.96480000  0.78520100 -0.27400000
C        C    0.91330000  0.49210000  0.25790000  0.11000000
C        C    0.41330000  0.99209900  0.25790000  0.11000000
C        C    0.41330000  0.49210000  0.75790000  0.11000000
C        C    0.91330000  0.99209900  0.75790000  0.11000000
C        C    0.90519900  0.45080000  0.29920000  0.84800000
C        C    0.40520000  0.95079900  0.29920000  0.84800000
C        C    0.40520000  0.45080000  0.79920000  0.84800000
C        C    0.90519900  0.95079900  0.79920000  0.84800000
H        H    0.41315600  0.00247031  0.24752900  0.10000000
H        H    0.91315500  0.50247000  0.24752900  0.10000000
H        H    0.91315500  0.00247031  0.74753000  0.10000000
H        H    0.41315600  0.50247000  0.74753000  0.10000000
C        C    0.49560000  0.25440000  0.01740060 -0.27400000
C        C    0.99560000  0.75440100  0.01740060 -0.27400000
C        C    0.99560000  0.25440000  0.51740000 -0.27400000
C        C    0.49560000  0.75440100  0.51740000 -0.27400000
C        C    0.48230000  0.26770100  0.02240020  0.84800000
C        C    0.98230000  0.76770000  0.02240020  0.84800000
C        C    0.98230000  0.26770100  0.52239900  0.84800000
C        C    0.48230000  0.76770000  0.52239900  0.84800000
C        C    0.91160000  0.33840000  0.36390000 -0.27400000
C        C    0.41160000  0.83839900  0.36390000 -0.27400000
C        C    0.41160000  0.33840000  0.86390000 -0.27400000
C        C    0.91160000  0.83839900  0.86390000 -0.27400000
C        C    0.92190000  0.32810100  0.37709900  0.84800000
C        C    0.42190000  0.82810000  0.37709900  0.84800000
C        C    0.42190000  0.32810100  0.87710000  0.84800000
C        C    0.92190000  0.82810000  0.87710000  0.84800000
C        C    0.96480000  0.28520000  0.40740000 -0.27400000
C        C    0.46480000  0.78520100  0.40740000 -0.27400000
C        C    0.46480000  0.28520000  0.90740000 -0.27400000
C        C    0.96480000  0.78520100  0.90740000 -0.27400000
C        C    0.99209900  0.25790000  0.41330000  0.11000000
C        C    0.49210000  0.75790000  0.41330000  0.11000000
C        C    0.49210000  0.25790000  0.91330000  0.11000000
C        C    0.99209900  0.75790000  0.91330000  0.11000000
C        C    0.95079900  0.29920000  0.40520000  0.84800000
C        C    0.45080000  0.79920000  0.40520000  0.84800000
C        C    0.45080000  0.29920000  0.90519900  0.84800000
C        C    0.95079900  0.79920000  0.90519900  0.84800000
H        H    0.00247031  0.24752900  0.41315600  0.10000000
H        H    0.50247000  0.74753000  0.41315600  0.10000000
H        H    0.50247000  0.24752900  0.91315500  0.10000000
H        H    0.00247031  0.74753000  0.91315500  0.10000000
C        C    0.75440100  0.25440000  0.23260000 -0.27400000
C        C    0.25440000  0.75440100  0.23260000 -0.27400000
C        C    0.25440000  0.25440000  0.73260000 -0.27400000
C        C    0.75440100  0.75440100  0.73260000 -0.27400000
C        C    0.76770000  0.26770100  0.22759900  0.84800000
C        C    0.26770100  0.76770000  0.22759900  0.84800000
C        C    0.26770100  0.26770100  0.72760000  0.84800000
C        C    0.76770000  0.76770000  0.72760000  0.84800000
C        C    0.83839900  0.33840000  0.38610000 -0.27400000
C        C    0.33840000  0.83839900  0.38610000 -0.27400000
C        C    0.33840000  0.33840000  0.88609900 -0.27400000
C        C    0.83839900  0.83839900  0.88609900 -0.27400000
C        C    0.82810000  0.32810100  0.37290000  0.84800000
C        C    0.32810100  0.82810000  0.37290000  0.84800000
C        C    0.32810100  0.32810100  0.87290000  0.84800000
C        C    0.82810000  0.82810000  0.87290000  0.84800000
C        C    0.78520100  0.28520000  0.34260000 -0.27400000
C        C    0.28520000  0.78520100  0.34260000 -0.27400000
C        C    0.28520000  0.28520000  0.84259900 -0.27400000
C        C    0.78520100  0.78520100  0.84259900 -0.27400000
C        C    0.75790000  0.25790000  0.33669900  0.11000000
C        C    0.25790000  0.75790000  0.33669900  0.11000000
C        C    0.25790000  0.25790000  0.83670000  0.11000000
C        C    0.75790000  0.75790000  0.83670000  0.11000000
C        C    0.79920000  0.29920000  0.34480000  0.84800000
C        C    0.29920000  0.79920000  0.34480000  0.84800000
C        C    0.29920000  0.29920000  0.84480000  0.84800000
C        C    0.79920000  0.79920000  0.84480000  0.84800000
H        H    0.74753000  0.24752900  0.33684500  0.10000000
H        H    0.24752900  0.74753000  0.33684500  0.10000000
H        H    0.24752900  0.24752900  0.83684500  0.10000000
H        H    0.74753000  0.74753000  0.83684500  0.10000000
C        C    0.25440000  0.49560000  0.01740060 -0.27400000
C        C    0.75440100  0.99560000  0.01740060 -0.27400000
C        C    0.75440100  0.49560000  0.51740000 -0.27400000
C        C    0.25440000  0.99560000  0.51740000 -0.27400000
C        C    0.26770100  0.48230000  0.02240020  0.84800000
C        C    0.76770000  0.98230000  0.02240020  0.84800000
C        C    0.76770000  0.48230000  0.52239900  0.84800000
C        C    0.26770100  0.98230000  0.52239900  0.84800000
C        C    0.83839900  0.41160000  0.36390000 -0.27400000
C        C    0.33840000  0.91160000  0.36390000 -0.27400000
C        C    0.33840000  0.41160000  0.86390000 -0.27400000
C        C    0.83839900  0.91160000  0.86390000 -0.27400000
C        C    0.82810000  0.42190000  0.37709900  0.84800000
C        C    0.32810100  0.92190000  0.37709900  0.84800000
C        C    0.32810100  0.42190000  0.87710000  0.84800000
C        C    0.82810000  0.92190000  0.87710000  0.84800000
C        C    0.78520100  0.46480000  0.40740000 -0.27400000
C        C    0.28520000  0.96480000  0.40740000 -0.27400000
C        C    0.28520000  0.46480000  0.90740000 -0.27400000
C        C    0.78520100  0.96480000  0.90740000 -0.27400000
C        C    0.75790000  0.49210000  0.41330000  0.11000000
C        C    0.25790000  0.99209900  0.41330000  0.11000000
C        C    0.25790000  0.49210000  0.91330000  0.11000000
C        C    0.75790000  0.99209900  0.91330000  0.11000000
C        C    0.79920000  0.45080000  0.40520000  0.84800000
C        C    0.29920000  0.95079900  0.40520000  0.84800000
C        C    0.29920000  0.45080000  0.90519900  0.84800000
C        C    0.79920000  0.95079900  0.90519900  0.84800000
H        H    0.24752900  0.00247031  0.41315600  0.10000000
H        H    0.74753000  0.50247000  0.41315600  0.10000000
H        H    0.74753000  0.00247031  0.91315500  0.10000000
H        H    0.24752900  0.50247000  0.91315500  0.10000000
C        C    0.99560000  0.49560000  0.23260000 -0.27400000
C        C    0.49560000  0.99560000  0.23260000 -0.27400000
C        C    0.49560000  0.49560000  0.73260000 -0.27400000
C        C    0.99560000  0.99560000  0.73260000 -0.27400000
C        C    0.98230000  0.48230000  0.22759900  0.84800000
C        C    0.48230000  0.98230000  0.22759900  0.84800000
C        C    0.48230000  0.48230000  0.72760000  0.84800000
C        C    0.98230000  0.98230000  0.72760000  0.84800000
C        C    0.91160000  0.41160000  0.38610000 -0.27400000
C        C    0.41160000  0.91160000  0.38610000 -0.27400000
C        C    0.41160000  0.41160000  0.88609900 -0.27400000
C        C    0.91160000  0.91160000  0.88609900 -0.27400000
C        C    0.92190000  0.42190000  0.37290000  0.84800000
C        C    0.42190000  0.92190000  0.37290000  0.84800000
C        C    0.42190000  0.42190000  0.87290000  0.84800000
C        C    0.92190000  0.92190000  0.87290000  0.84800000
C        C    0.96480000  0.46480000  0.34260000 -0.27400000
C        C    0.46480000  0.96480000  0.34260000 -0.27400000
C        C    0.46480000  0.46480000  0.84259900 -0.27400000
C        C    0.96480000  0.96480000  0.84259900 -0.27400000
C        C    0.99209900  0.49210000  0.33669900  0.11000000
C        C    0.49210000  0.99209900  0.33669900  0.11000000
C        C    0.49210000  0.49210000  0.83670000  0.11000000
C        C    0.99209900  0.99209900  0.83670000  0.11000000
C        C    0.95079900  0.45080000  0.34480000  0.84800000
C        C    0.45080000  0.95079900  0.34480000  0.84800000
C        C    0.45080000  0.45080000  0.84480000  0.84800000
C        C    0.95079900  0.95079900  0.84480000  0.84800000
H        H    0.50247000  0.00247031  0.33684500  0.10000000
H        H    0.00247031  0.50247000  0.33684500  0.10000000
H        H    0.00247031  0.00247031  0.83684500  0.10000000
H        H    0.50247000  0.50247000  0.83684500  0.10000000
C        C    0.75440100  0.23260000  0.25440000 -0.27400000
C        C    0.25440000  0.73260000  0.25440000 -0.27400000
C        C    0.25440000  0.23260000  0.75440100 -0.27400000
C        C    0.75440100  0.73260000  0.75440100 -0.27400000
C        C    0.76770000  0.22759900  0.26770100  0.84800000
C        C    0.26770100  0.72760000  0.26770100  0.84800000
C        C    0.26770100  0.22759900  0.76770000  0.84800000
C        C    0.76770000  0.72760000  0.76770000  0.84800000
C        C    0.83839900  0.38610000  0.33840000 -0.27400000
C        C    0.33840000  0.88609900  0.33840000 -0.27400000
C        C    0.33840000  0.38610000  0.83839900 -0.27400000
C        C    0.83839900  0.88609900  0.83839900 -0.27400000
C        C    0.82810000  0.37290000  0.32810100  0.84800000
C        C    0.32810100  0.87290000  0.32810100  0.84800000
C        C    0.32810100  0.37290000  0.82810000  0.84800000
C        C    0.82810000  0.87290000  0.82810000  0.84800000
C        C    0.78520100  0.34260000  0.28520000 -0.27400000
C        C    0.28520000  0.84259900  0.28520000 -0.27400000
C        C    0.28520000  0.34260000  0.78520100 -0.27400000
C        C    0.78520100  0.84259900  0.78520100 -0.27400000
C        C    0.75790000  0.33669900  0.25790000  0.11000000
C        C    0.25790000  0.83670000  0.25790000  0.11000000
C        C    0.25790000  0.33669900  0.75790000  0.11000000
C        C    0.75790000  0.83670000  0.75790000  0.11000000
C        C    0.79920000  0.34480000  0.29920000  0.84800000
C        C    0.29920000  0.84480000  0.29920000  0.84800000
C        C    0.29920000  0.34480000  0.79920000  0.84800000
C        C    0.79920000  0.84480000  0.79920000  0.84800000
H        H    0.74753000  0.33684500  0.24752900  0.10000000
H        H    0.24752900  0.83684500  0.24752900  0.10000000
H        H    0.24752900  0.33684500  0.74753000  0.10000000
H        H    0.74753000  0.83684500  0.74753000  0.10000000
C        C    0.25440000  0.01740060  0.49560000 -0.27400000
C        C    0.75440100  0.51740000  0.49560000 -0.27400000
C        C    0.75440100  0.01740060  0.99560000 -0.27400000
C        C    0.25440000  0.51740000  0.99560000 -0.27400000
C        C    0.26770100  0.02240020  0.48230000  0.84800000
C        C    0.76770000  0.52239900  0.48230000  0.84800000
C        C    0.76770000  0.02240020  0.98230000  0.84800000
C        C    0.26770100  0.52239900  0.98230000  0.84800000
C        C    0.83839900  0.36390000  0.41160000 -0.27400000
C        C    0.33840000  0.86390000  0.41160000 -0.27400000
C        C    0.33840000  0.36390000  0.91160000 -0.27400000
C        C    0.83839900  0.86390000  0.91160000 -0.27400000
C        C    0.82810000  0.37709900  0.42190000  0.84800000
C        C    0.32810100  0.87710000  0.42190000  0.84800000
C        C    0.32810100  0.37709900  0.92190000  0.84800000
C        C    0.82810000  0.87710000  0.92190000  0.84800000
C        C    0.78520100  0.40740000  0.46480000 -0.27400000
C        C    0.28520000  0.90740000  0.46480000 -0.27400000
C        C    0.28520000  0.40740000  0.96480000 -0.27400000
C        C    0.78520100  0.90740000  0.96480000 -0.27400000
C        C    0.75790000  0.41330000  0.49210000  0.11000000
C        C    0.25790000  0.91330000  0.49210000  0.11000000
C        C    0.25790000  0.41330000  0.99209900  0.11000000
C        C    0.75790000  0.91330000  0.99209900  0.11000000
C        C    0.79920000  0.40520000  0.45080000  0.84800000
C        C    0.29920000  0.90519900  0.45080000  0.84800000
C        C    0.29920000  0.40520000  0.95079900  0.84800000
C        C    0.79920000  0.90519900  0.95079900  0.84800000
H        H    0.24752900  0.41315600  0.00247031  0.10000000
H        H    0.74753000  0.91315500  0.00247031  0.10000000
H        H    0.74753000  0.41315600  0.50247000  0.10000000
H        H    0.24752900  0.91315500  0.50247000  0.10000000
C        C    0.99560000  0.23260000  0.49560000 -0.27400000
C        C    0.49560000  0.73260000  0.49560000 -0.27400000
C        C    0.49560000  0.23260000  0.99560000 -0.27400000
C        C    0.99560000  0.73260000  0.99560000 -0.27400000
C        C    0.98230000  0.22759900  0.48230000  0.84800000
C        C    0.48230000  0.72760000  0.48230000  0.84800000
C        C    0.48230000  0.22759900  0.98230000  0.84800000
C        C    0.98230000  0.72760000  0.98230000  0.84800000
C        C    0.91160000  0.38610000  0.41160000 -0.27400000
C        C    0.41160000  0.88609900  0.41160000 -0.27400000
C        C    0.41160000  0.38610000  0.91160000 -0.27400000
C        C    0.91160000  0.88609900  0.91160000 -0.27400000
C        C    0.92190000  0.37290000  0.42190000  0.84800000
C        C    0.42190000  0.87290000  0.42190000  0.84800000
C        C    0.42190000  0.37290000  0.92190000  0.84800000
C        C    0.92190000  0.87290000  0.92190000  0.84800000
C        C    0.96480000  0.34260000  0.46480000 -0.27400000
C        C    0.46480000  0.84259900  0.46480000 -0.27400000
C        C    0.46480000  0.34260000  0.96480000 -0.27400000
C        C    0.96480000  0.84259900  0.96480000 -0.27400000
C        C    0.99209900  0.33669900  0.49210000  0.11000000
C        C    0.49210000  0.83670000  0.49210000  0.11000000
C        C    0.49210000  0.33669900  0.99209900  0.11000000
C        C    0.99209900  0.83670000  0.99209900  0.11000000
C        C    0.95079900  0.34480000  0.45080000  0.84800000
C        C    0.45080000  0.84480000  0.45080000  0.84800000
C        C    0.45080000  0.34480000  0.95079900  0.84800000
C        C    0.95079900  0.84480000  0.95079900  0.84800000
H        H    0.50247000  0.33684500  0.00247031  0.10000000
H        H    0.00247031  0.83684500  0.00247031  0.10000000
H        H    0.00247031  0.33684500  0.50247000  0.10000000
H        H    0.50247000  0.83684500  0.50247000  0.10000000
C        C    0.49560000  0.01740060  0.25440000 -0.27400000
C        C    0.99560000  0.51740000  0.25440000 -0.27400000
C        C    0.99560000  0.01740060  0.75440100 -0.27400000
C        C    0.49560000  0.51740000  0.75440100 -0.27400000
C        C    0.48230000  0.02240020  0.26770100  0.84800000
C        C    0.98230000  0.52239900  0.26770100  0.84800000
C        C    0.98230000  0.02240020  0.76770000  0.84800000
C        C    0.48230000  0.52239900  0.76770000  0.84800000
C        C    0.91160000  0.36390000  0.33840000 -0.27400000
C        C    0.41160000  0.86390000  0.33840000 -0.27400000
C        C    0.41160000  0.36390000  0.83839900 -0.27400000
C        C    0.91160000  0.86390000  0.83839900 -0.27400000
C        C    0.92190000  0.37709900  0.32810100  0.84800000
C        C    0.42190000  0.87710000  0.32810100  0.84800000
C        C    0.42190000  0.37709900  0.82810000  0.84800000
C        C    0.92190000  0.87710000  0.82810000  0.84800000
C        C    0.96480000  0.40740000  0.28520000 -0.27400000
C        C    0.46480000  0.90740000  0.28520000 -0.27400000
C        C    0.46480000  0.40740000  0.78520100 -0.27400000
C        C    0.96480000  0.90740000  0.78520100 -0.27400000
C        C    0.99209900  0.41330000  0.25790000  0.11000000
C        C    0.49210000  0.91330000  0.25790000  0.11000000
C        C    0.49210000  0.41330000  0.75790000  0.11000000
C        C    0.99209900  0.91330000  0.75790000  0.11000000
C        C    0.95079900  0.40520000  0.29920000  0.84800000
C        C    0.45080000  0.90519900  0.29920000  0.84800000
C        C    0.45080000  0.40520000  0.79920000  0.84800000
C        C    0.95079900  0.90519900  0.79920000  0.84800000
H        H    0.00247031  0.41315600  0.24752900  0.10000000
H        H    0.50247000  0.91315500  0.24752900  0.10000000
H        H    0.50247000  0.41315600  0.74753000  0.10000000
H        H    0.00247031  0.91315500  0.74753000  0.10000000
C        C    0.23850000  0.48770000  0.48770000  0.11000000
C        C    0.73850100  0.98770100  0.48770000  0.11000000
C        C    0.73850100  0.48770000  0.98770100  0.11000000
C        C    0.23850000  0.98770100  0.98770100  0.11000000
C        C    0.51150000  0.26230000  0.48770000  0.11000000
C        C    0.01149980  0.76230000  0.48770000  0.11000000
C        C    0.01149980  0.26230000  0.98770100  0.11000000
C        C    0.51150000  0.76230000  0.98770100  0.11000000
C        C    0.51150000  0.48770000  0.26230000  0.11000000
C        C    0.01149980  0.98770100  0.26230000  0.11000000
C        C    0.01149980  0.48770000  0.76230000  0.11000000
C        C    0.51150000  0.98770100  0.76230000  0.11000000
C        C    0.23850000  0.26230000  0.26230000  0.11000000
C        C    0.73850100  0.76230000  0.26230000  0.11000000
C        C    0.73850100  0.26230000  0.76230000  0.11000000
C        C    0.23850000  0.76230000  0.76230000  0.11000000
C        C    0.48770000  0.23850000  0.48770000  0.11000000
C        C    0.98770100  0.73850100  0.48770000  0.11000000
C        C    0.98770100  0.23850000  0.98770100  0.11000000
C        C    0.48770000  0.73850100  0.98770100  0.11000000
C        C    0.98770100  0.01149980  0.26230000  0.11000000
C        C    0.48770000  0.51150000  0.26230000  0.11000000
C        C    0.48770000  0.01149980  0.76230000  0.11000000
C        C    0.98770100  0.51150000  0.76230000  0.11000000
C        C    0.76230000  0.01149980  0.48770000  0.11000000
C        C    0.26230000  0.51150000  0.48770000  0.11000000
C        C    0.26230000  0.01149980  0.98770100  0.11000000
C        C    0.76230000  0.51150000  0.98770100  0.11000000
C        C    0.26230000  0.23850000  0.26230000  0.11000000
C        C    0.76230000  0.73850100  0.26230000  0.11000000
C        C    0.76230000  0.23850000  0.76230000  0.11000000
C        C    0.26230000  0.73850100  0.76230000  0.11000000
C        C    0.48770000  0.48770000  0.23850000  0.11000000
C        C    0.98770100  0.98770100  0.23850000  0.11000000
C        C    0.98770100  0.48770000  0.73850100  0.11000000
C        C    0.48770000  0.98770100  0.73850100  0.11000000
C        C    0.76230000  0.48770000  0.01149980  0.11000000
C        C    0.26230000  0.98770100  0.01149980  0.11000000
C        C    0.26230000  0.48770000  0.51150000  0.11000000
C        C    0.76230000  0.98770100  0.51150000  0.11000000
C        C    0.98770100  0.26230000  0.01149980  0.11000000
C        C    0.48770000  0.76230000  0.01149980  0.11000000
C        C    0.48770000  0.26230000  0.51150000  0.11000000
C        C    0.98770100  0.76230000  0.51150000  0.11000000
C        C    0.26230000  0.26230000  0.23850000  0.11000000
C        C    0.76230000  0.76230000  0.23850000  0.11000000
C        C    0.76230000  0.26230000  0.73850100  0.11000000
C        C    0.26230000  0.76230000  0.73850100  0.11000000
C        C    0.23770000  0.48850000  0.01229940  0.11000000
C        C    0.73770000  0.98850000  0.01229940  0.11000000
C        C    0.73770000  0.48850000  0.51230000  0.11000000
C        C    0.23770000  0.98850000  0.51230000  0.11000000
C        C    0.51230000  0.26149900  0.01229940  0.11000000
C        C    0.01229940  0.76150000  0.01229940  0.11000000
C        C    0.01229940  0.26149900  0.51230000  0.11000000
C        C    0.51230000  0.76150000  0.51230000  0.11000000
C        C    0.73770000  0.26149900  0.23770000  0.11000000
C        C    0.23770000  0.76150000  0.23770000  0.11000000
C        C    0.23770000  0.26149900  0.73770000  0.11000000
C        C    0.73770000  0.76150000  0.73770000  0.11000000
C        C    0.01229940  0.48850000  0.23770000  0.11000000
C        C    0.51230000  0.98850000  0.23770000  0.11000000
C        C    0.51230000  0.48850000  0.73770000  0.11000000
C        C    0.01229940  0.98850000  0.73770000  0.11000000
C        C    0.48850000  0.23770000  0.01229940  0.11000000
C        C    0.98850000  0.73770000  0.01229940  0.11000000
C        C    0.98850000  0.23770000  0.51230000  0.11000000
C        C    0.48850000  0.73770000  0.51230000  0.11000000
C        C    0.76150000  0.23770000  0.23770000  0.11000000
C        C    0.26149900  0.73770000  0.23770000  0.11000000
C        C    0.26149900  0.23770000  0.73770000  0.11000000
C        C    0.76150000  0.73770000  0.73770000  0.11000000
C        C    0.76150000  0.01229940  0.01229940  0.11000000
C        C    0.26149900  0.51230000  0.01229940  0.11000000
C        C    0.26149900  0.01229940  0.51230000  0.11000000
C        C    0.76150000  0.51230000  0.51230000  0.11000000
C        C    0.48850000  0.01229940  0.23770000  0.11000000
C        C    0.98850000  0.51230000  0.23770000  0.11000000
C        C    0.98850000  0.01229940  0.73770000  0.11000000
C        C    0.48850000  0.51230000  0.73770000  0.11000000
C        C    0.73770000  0.23770000  0.26149900  0.11000000
C        C    0.23770000  0.73770000  0.26149900  0.11000000
C        C    0.23770000  0.23770000  0.76150000  0.11000000
C        C    0.73770000  0.73770000  0.76150000  0.11000000
C        C    0.23770000  0.01229940  0.48850000  0.11000000
C        C    0.73770000  0.51230000  0.48850000  0.11000000
C        C    0.73770000  0.01229940  0.98850000  0.11000000
C        C    0.23770000  0.51230000  0.98850000  0.11000000
C        C    0.01229940  0.23770000  0.48850000  0.11000000
C        C    0.51230000  0.73770000  0.48850000  0.11000000
C        C    0.51230000  0.23770000  0.98850000  0.11000000
C        C    0.01229940  0.73770000  0.98850000  0.11000000
C        C    0.51230000  0.01229940  0.26149900  0.11000000
C        C    0.01229940  0.51230000  0.26149900  0.11000000
C        C    0.01229940  0.01229940  0.76150000  0.11000000
C        C    0.51230000  0.51230000  0.76150000  0.11000000
H        H    0.77115000  0.02012190  0.02012190  0.10000000
H        H    0.27115000  0.52012100  0.02012190  0.10000000
H        H    0.27115000  0.02012190  0.52012100  0.10000000
H        H    0.77115000  0.52012100  0.52012100  0.10000000
H        H    0.59819900  0.46506800  0.46506800  0.10000000
H        H    0.09819810  0.96506900  0.46506800  0.10000000
H        H    0.09819810  0.46506800  0.96506900  0.10000000
H        H    0.59819900  0.96506900  0.96506900  0.10000000
H        H    0.47885000  0.22987800  0.02012190  0.10000000
H        H    0.97884900  0.72987800  0.02012190  0.10000000
H        H    0.97884900  0.22987800  0.52012100  0.10000000
H        H    0.47885000  0.72987800  0.52012100  0.10000000
H        H    0.15180200  0.28493200  0.46506800  0.10000000
H        H    0.65180100  0.78493200  0.46506800  0.10000000
H        H    0.65180100  0.28493200  0.96506900  0.10000000
H        H    0.15180200  0.78493200  0.96506900  0.10000000
H        H    0.47885000  0.02012190  0.22987800  0.10000000
H        H    0.97884900  0.52012100  0.22987800  0.10000000
H        H    0.97884900  0.02012190  0.72987800  0.10000000
H        H    0.47885000  0.52012100  0.72987800  0.10000000
H        H    0.15180200  0.46506800  0.28493200  0.10000000
H        H    0.65180100  0.96506900  0.28493200  0.10000000
H        H    0.65180100  0.46506800  0.78493200  0.10000000
H        H    0.15180200  0.96506900  0.78493200  0.10000000
H        H    0.77115000  0.22987800  0.22987800  0.10000000
H        H    0.27115000  0.72987800  0.22987800  0.10000000
H        H    0.27115000  0.22987800  0.72987800  0.10000000
H        H    0.77115000  0.72987800  0.72987800  0.10000000
H        H    0.59819900  0.28493200  0.28493200  0.10000000
H        H    0.09819810  0.78493200  0.28493200  0.10000000
H        H    0.09819810  0.28493200  0.78493200  0.10000000
H        H    0.59819900  0.78493200  0.78493200  0.10000000
H        H    0.52012100  0.27115000  0.02012190  0.10000000
H        H    0.02012190  0.77115000  0.02012190  0.10000000
H        H    0.02012190  0.27115000  0.52012100  0.10000000
H        H    0.52012100  0.77115000  0.52012100  0.10000000
H        H    0.96506900  0.09819810  0.46506800  0.10000000
H        H    0.46506800  0.59819900  0.46506800  0.10000000
H        H    0.46506800  0.09819810  0.96506900  0.10000000
H        H    0.96506900  0.59819900  0.96506900  0.10000000
H        H    0.02012190  0.47885000  0.22987800  0.10000000
H        H    0.52012100  0.97884900  0.22987800  0.10000000
H        H    0.52012100  0.47885000  0.72987800  0.10000000
H        H    0.02012190  0.97884900  0.72987800  0.10000000
H        H    0.46506800  0.15180200  0.28493200  0.10000000
H        H    0.96506900  0.65180100  0.28493200  0.10000000
H        H    0.96506900  0.15180200  0.78493200  0.10000000
H        H    0.46506800  0.65180100  0.78493200  0.10000000
H        H    0.22987800  0.47885000  0.02012190  0.10000000
H        H    0.72987800  0.97884900  0.02012190  0.10000000
H        H    0.72987800  0.47885000  0.52012100  0.10000000
H        H    0.22987800  0.97884900  0.52012100  0.10000000
H        H    0.28493200  0.15180200  0.46506800  0.10000000
H        H    0.78493200  0.65180100  0.46506800  0.10000000
H        H    0.78493200  0.15180200  0.96506900  0.10000000
H        H    0.28493200  0.65180100  0.96506900  0.10000000
H        H    0.72987800  0.27115000  0.22987800  0.10000000
H        H    0.22987800  0.77115000  0.22987800  0.10000000
H        H    0.22987800  0.27115000  0.72987800  0.10000000
H        H    0.72987800  0.77115000  0.72987800  0.10000000
H        H    0.78493200  0.09819810  0.28493200  0.10000000
H        H    0.28493200  0.59819900  0.28493200  0.10000000
H        H    0.28493200  0.09819810  0.78493200  0.10000000
H        H    0.78493200  0.59819900  0.78493200  0.10000000
H        H    0.52012100  0.02012190  0.27115000  0.10000000
H        H    0.02012190  0.52012100  0.27115000  0.10000000
H        H    0.02012190  0.02012190  0.77115000  0.10000000
H        H    0.52012100  0.52012100  0.77115000  0.10000000
H        H    0.96506900  0.46506800  0.09819810  0.10000000
H        H    0.46506800  0.96506900  0.09819810  0.10000000
H        H    0.46506800  0.46506800  0.59819900  0.10000000
H        H    0.96506900  0.96506900  0.59819900  0.10000000
H        H    0.22987800  0.02012190  0.47885000  0.10000000
H        H    0.72987800  0.52012100  0.47885000  0.10000000
H        H    0.72987800  0.02012190  0.97884900  0.10000000
H        H    0.22987800  0.52012100  0.97884900  0.10000000
H        H    0.28493200  0.46506800  0.15180200  0.10000000
H        H    0.78493200  0.96506900  0.15180200  0.10000000
H        H    0.78493200  0.46506800  0.65180100  0.10000000
H        H    0.28493200  0.96506900  0.65180100  0.10000000
H        H    0.02012190  0.22987800  0.47885000  0.10000000
H        H    0.52012100  0.72987800  0.47885000  0.10000000
H        H    0.52012100  0.22987800  0.97884900  0.10000000
H        H    0.02012190  0.72987800  0.97884900  0.10000000
H        H    0.46506800  0.28493200  0.15180200  0.10000000
H        H    0.96506900  0.78493200  0.15180200  0.10000000
H        H    0.96506900  0.28493200  0.65180100  0.10000000
H        H    0.46506800  0.78493200  0.65180100  0.10000000
H        H    0.72987800  0.22987800  0.27115000  0.10000000
H        H    0.22987800  0.72987800  0.27115000  0.10000000
H        H    0.22987800  0.22987800  0.77115000  0.10000000
H        H    0.72987800  0.72987800  0.77115000  0.10000000
H        H    0.78493200  0.28493200  0.09819810  0.10000000
H        H    0.28493200  0.78493200  0.09819810  0.10000000
H        H    0.28493200  0.28493200  0.59819900  0.10000000
H        H    0.78493200  0.78493200  0.59819900  0.10000000
H        H    0.77012200  0.02115060  0.47987900  0.10000000
H        H    0.27012200  0.52115000  0.47987900  0.10000000
H        H    0.27012200  0.02115060  0.97987800  0.10000000
H        H    0.77012200  0.52115000  0.97987800  0.10000000
H        H    0.71506800  0.34819900  0.03493140  0.10000000
H        H    0.21506800  0.84819800  0.03493140  0.10000000
H        H    0.21506800  0.34819900  0.53493200  0.10000000
H        H    0.71506800  0.84819800  0.53493200  0.10000000
H        H    0.47987900  0.22885000  0.47987900  0.10000000
H        H    0.97987800  0.72885000  0.47987900  0.10000000
H        H    0.97987800  0.22885000  0.97987800  0.10000000
H        H    0.47987900  0.72885000  0.97987800  0.10000000
H        H    0.03493140  0.40180100  0.03493140  0.10000000
H        H    0.53493200  0.90180200  0.03493140  0.10000000
H        H    0.53493200  0.40180100  0.53493200  0.10000000
H        H    0.03493140  0.90180200  0.53493200  0.10000000
H        H    0.27012200  0.22885000  0.27012200  0.10000000
H        H    0.77012200  0.72885000  0.27012200  0.10000000
H        H    0.77012200  0.22885000  0.77012200  0.10000000
H        H    0.27012200  0.72885000  0.77012200  0.10000000
H        H    0.21506800  0.40180100  0.21506800  0.10000000
H        H    0.71506800  0.90180200  0.21506800  0.10000000
H        H    0.71506800  0.40180100  0.71506800  0.10000000
H        H    0.21506800  0.90180200  0.71506800  0.10000000
H        H    0.97987800  0.02115060  0.27012200  0.10000000
H        H    0.47987900  0.52115000  0.27012200  0.10000000
H        H    0.47987900  0.02115060  0.77012200  0.10000000
H        H    0.97987800  0.52115000  0.77012200  0.10000000
H        H    0.53493200  0.34819900  0.21506800  0.10000000
H        H    0.03493140  0.84819800  0.21506800  0.10000000
H        H    0.03493140  0.34819900  0.71506800  0.10000000
H        H    0.53493200  0.84819800  0.71506800  0.10000000
H        H    0.52115000  0.27012200  0.47987900  0.10000000
H        H    0.02115060  0.77012200  0.47987900  0.10000000
H        H    0.02115060  0.27012200  0.97987800  0.10000000
H        H    0.52115000  0.77012200  0.97987800  0.10000000
H        H    0.84819800  0.21506800  0.03493140  0.10000000
H        H    0.34819900  0.71506800  0.03493140  0.10000000
H        H    0.34819900  0.21506800  0.53493200  0.10000000
H        H    0.84819800  0.71506800  0.53493200  0.10000000
H        H    0.22885000  0.27012200  0.27012200  0.10000000
H        H    0.72885000  0.77012200  0.27012200  0.10000000
H        H    0.72885000  0.27012200  0.77012200  0.10000000
H        H    0.22885000  0.77012200  0.77012200  0.10000000
H        H    0.40180100  0.21506800  0.21506800  0.10000000
H        H    0.90180200  0.71506800  0.21506800  0.10000000
H        H    0.90180200  0.21506800  0.71506800  0.10000000
H        H    0.40180100  0.71506800  0.71506800  0.10000000
H        H    0.22885000  0.47987900  0.47987900  0.10000000
H        H    0.72885000  0.97987800  0.47987900  0.10000000
H        H    0.72885000  0.47987900  0.97987800  0.10000000
H        H    0.22885000  0.97987800  0.97987800  0.10000000
H        H    0.40180100  0.03493140  0.03493140  0.10000000
H        H    0.90180200  0.53493200  0.03493140  0.10000000
H        H    0.90180200  0.03493140  0.53493200  0.10000000
H        H    0.40180100  0.53493200  0.53493200  0.10000000
H        H    0.52115000  0.47987900  0.27012200  0.10000000
H        H    0.02115060  0.97987800  0.27012200  0.10000000
H        H    0.02115060  0.47987900  0.77012200  0.10000000
H        H    0.52115000  0.97987800  0.77012200  0.10000000
H        H    0.84819800  0.03493140  0.21506800  0.10000000
H        H    0.34819900  0.53493200  0.21506800  0.10000000
H        H    0.34819900  0.03493140  0.71506800  0.10000000
H        H    0.84819800  0.53493200  0.71506800  0.10000000
H        H    0.27012200  0.27012200  0.22885000  0.10000000
H        H    0.77012200  0.77012200  0.22885000  0.10000000
H        H    0.77012200  0.27012200  0.72885000  0.10000000
H        H    0.27012200  0.77012200  0.72885000  0.10000000
H        H    0.21506800  0.21506800  0.40180100  0.10000000
H        H    0.71506800  0.71506800  0.40180100  0.10000000
H        H    0.71506800  0.21506800  0.90180200  0.10000000
H        H    0.21506800  0.71506800  0.90180200  0.10000000
H        H    0.77012200  0.47987900  0.02115060  0.10000000
H        H    0.27012200  0.97987800  0.02115060  0.10000000
H        H    0.27012200  0.47987900  0.52115000  0.10000000
H        H    0.77012200  0.97987800  0.52115000  0.10000000
H        H    0.71506800  0.03493140  0.34819900  0.10000000
H        H    0.21506800  0.53493200  0.34819900  0.10000000
H        H    0.21506800  0.03493140  0.84819800  0.10000000
H        H    0.71506800  0.53493200  0.84819800  0.10000000
H        H    0.97987800  0.27012200  0.02115060  0.10000000
H        H    0.47987900  0.77012200  0.02115060  0.10000000
H        H    0.47987900  0.27012200  0.52115000  0.10000000
H        H    0.97987800  0.77012200  0.52115000  0.10000000
H        H    0.53493200  0.21506800  0.34819900  0.10000000
H        H    0.03493140  0.71506800  0.34819900  0.10000000
H        H    0.03493140  0.21506800  0.84819800  0.10000000
H        H    0.53493200  0.71506800  0.84819800  0.10000000
H        H    0.47987900  0.47987900  0.22885000  0.10000000
H        H    0.97987800  0.97987800  0.22885000  0.10000000
H        H    0.97987800  0.47987900  0.72885000  0.10000000
H        H    0.47987900  0.97987800  0.72885000  0.10000000
H        H    0.03493140  0.03493140  0.40180100  0.10000000
H        H    0.53493200  0.53493200  0.40180100  0.10000000
H        H    0.53493200  0.03493140  0.90180200  0.10000000
H        H    0.03493140  0.53493200  0.90180200  0.10000000
