data_MIL-100

_cell_length_a  51.55204268
_cell_length_b  51.55206331
_cell_length_c  51.55206331
_cell_angle_alpha  90.00011459
_cell_angle_beta  119.99989414
_cell_angle_gamma  119.99994707


_symmetry_space_group_name_Hall ' P 1'
_symmetry_space_group_name_H-M  'P 1'
_symmetry_Int_Tables_number     1

loop_
_atom_site_label
_atom_site_type_symbol
_atom_site_fract_x
_atom_site_fract_y
_atom_site_fract_z
_atom_site_charge
Cr       Cr   0.45480081  0.12599970  0.21920170  0.00000000
Cr       Cr   0.26060257  0.95670046  0.27670246  0.00000000
O        O    0.36580222  0.13090092  0.04350032  0.00000000
O        O    0.32880029  0.11410031  0.98409951  0.00000000
O        O    0.24700082  0.93670061  0.11370061  0.00000000
O        O    0.20020076  0.82040012  0.12300012  0.00000000
O        O    0.23080076  0.90889990  0.14109990  0.00000000
O        O    0.39820089  0.10500019  0.14040019  0.00000000
O        O    0.32180082  0.04759938  0.15140138  0.00000000
O        O    0.45600287  0.12900189  0.18219989  0.00000000
O        O    0.43160078  0.25559904  0.23139784  0.00000000
O        O    0.45060076  0.10930089  0.24890089  0.00000000
O        O    0.34780276  0.07970271  0.19870071  0.00000000
O        O    0.31680328  0.96300064  0.35640064  0.00000000
O        O    0.05480078  0.67790005  0.03730005  0.00000000
O        O    0.26240052  0.93469878  0.30790078  0.00000000
O        O    0.07639875  0.72670009  0.06829809  0.00000000
O        O    0.26319862  0.96999986  0.24319986  0.00000000
O        O    0.29699862  0.02329873  0.26009873  0.00000000
C        C    0.15000077  0.75559908  0.09219908  0.00000000
C        C    0.12319878  0.71809806  0.07630006  0.00000000
C        C    0.08299877  0.70589907  0.06169907  0.00000000
C        C    0.41840017  0.13530040  0.10309980  0.00000000
C        C    0.44500014  0.13850102  0.13329978  0.00000000
C        C    0.43240290  0.12490010  0.15230210  0.00000000
C        C    0.29620075  0.02379898  0.17860098  0.00000000
C        C    0.28980071  0.02529989  0.20229989  0.00000000
C        C    0.27220068  0.99509967  0.20829967  0.00000000
C        C    0.25960071  0.96530045  0.18850045  0.00000000
C        C    0.26020075  0.96480074  0.16040074  0.00000000
C        C    0.27240077  0.99380006  0.15320006  0.00000000
C        C    0.24599878  0.93539872  0.13799872  0.00000000
C        C    0.27840064  0.99599968  0.23899968  0.00000000
C        C    0.32280078  0.05110149  0.17649949  0.00000000
C        C    0.42180262  0.06680068  0.32440068  0.00000000
C        C    0.41860066  0.08510089  0.29830089  0.00000000
C        C    0.27920128  0.94199964  0.33819964  0.00000000
H        H    0.35886488  0.99353120  0.12954920  0.00000000
H        H    0.46612283  0.04878121  0.21543121  0.00000000
H        H    0.20896827  0.14633931  0.93869331  0.00000000
H        H    0.22657482  0.76771505  0.10325105  0.00000000
H        H    0.25052291  0.80492807  0.05715207  0.00000000
H        H    0.38816416  0.11552570  0.09117910  0.00000000
H        H    0.39829466  0.08991541  0.28823541  0.00000000
Cr       Cr   0.04520104  0.78079913  0.87400113  0.00000000
Cr       Cr   0.23940292  0.72329999  0.04330199  0.00000000
O        O    0.13420112  0.95650155  0.86910095  0.00000000
O        O    0.17119952  0.01589989  0.88589909  0.00000000
O        O    0.25300090  0.88630015  0.06330015  0.00000000
O        O    0.29980075  0.87700013  0.17960013  0.00000000
O        O    0.26920287  0.85890212  0.09110212  0.00000000
O        O    0.10179905  0.85959918  0.89499918  0.00000000
O        O    0.17819902  0.84859813  0.95240013  0.00000000
O        O    0.04400104  0.81780017  0.87099817  0.00000000
O        O    0.06840106  0.76860058  0.74439938  0.00000000
O        O    0.04940101  0.75110010  0.89070010  0.00000000
O        O    0.15220105  0.80130109  0.92029909  0.00000000
O        O    0.18320089  0.64359994  0.03699994  0.00000000
O        O    0.44520264  0.96270166  0.32210166  0.00000000
O        O    0.23759889  0.69209696  0.06529896  0.00000000
O        O    0.42360070  0.93170113  0.27329913  0.00000000
O        O    0.23680094  0.75680002  0.03000002  0.00000000
O        O    0.20300100  0.73990001  0.97670001  0.00000000
C        C    0.34999869  0.90779875  0.24439875  0.00000000
C        C    0.37680065  0.92369955  0.28190155  0.00000000
C        C    0.41700066  0.93830005  0.29410005  0.00000000
C        C    0.08160168  0.89690082  0.86470022  0.00000000
C        C    0.05500007  0.86670033  0.86149909  0.00000000
C        C    0.06760305  0.84770118  0.87510318  0.00000000
C        C    0.20379900  0.82139909  0.97620109  0.00000000
C        C    0.21019901  0.79769807  0.97469807  0.00000000
C        C    0.22780097  0.79170006  0.00490006  0.00000000
C        C    0.24040094  0.81150007  0.03470007  0.00000000
C        C    0.23979894  0.83959910  0.03519910  0.00000000
C        C    0.22760097  0.84680111  0.00620111  0.00000000
C        C    0.25400090  0.86199912  0.06459912  0.00000000
C        C    0.22160097  0.76100003  0.00400003  0.00000000
C        C    0.17720102  0.82350111  0.94889911  0.00000000
C        C    0.07820297  0.67560102  0.93320102  0.00000000
C        C    0.08140100  0.70170004  0.91490004  0.00000000
C        C    0.22079888  0.66179894  0.05799894  0.00000000
H        H    0.14113490  0.87045019  0.00646819  0.00000000
H        H    0.03387891  0.78456815  0.95121815  0.00000000
H        H    0.27342865  0.89675018  0.23228618  0.00000000
H        H    0.24948069  0.94284793  0.19507193  0.00000000
H        H    0.11183507  0.90882052  0.88447392  0.00000000
H        H    0.10170703  0.71176403  0.91008403  0.00000000
Cr       Cr   0.04520136  0.26440097  0.67120097  0.00000000
Cr       Cr   0.23940068  0.51609951  0.69610151  0.00000000
O        O    0.13420128  0.17769915  0.76510115  0.00000000
O        O    0.17119968  0.15530061  0.78529861  0.00000000
O        O    0.25300070  0.36670055  0.68970055  0.00000000
O        O    0.29980085  0.42280117  0.62019917  0.00000000
O        O    0.26920073  0.41029988  0.67809988  0.00000000
O        O    0.10180055  0.24220102  0.70679902  0.00000000
O        O    0.17820058  0.32960027  0.72580027  0.00000000
O        O    0.04399996  0.22619943  0.67299943  0.00000000
O        O    0.06840114  0.29979862  0.82399862  0.00000000
O        O    0.04940139  0.29830020  0.65870220  0.00000000
O        O    0.15219995  0.35090031  0.73190031  0.00000000
O        O    0.18320151  0.53959976  0.64619976  0.00000000
O        O    0.44520096  0.48250014  0.62310014  0.00000000
O        O    0.23760071  0.54549988  0.67229988  0.00000000
O        O    0.42360090  0.49190017  0.65030017  0.00000000
O        O    0.23680066  0.47999988  0.70680188  0.00000000
O        O    0.20300060  0.46310072  0.72629872  0.00000000
C        C    0.35000091  0.44220015  0.60559815  0.00000000
C        C    0.37680095  0.45310015  0.59490015  0.00000000
C        C    0.41699894  0.47870015  0.62289815  0.00000000
C        C    0.08160192  0.18469998  0.71690198  0.00000000
C        C    0.05500033  0.18830049  0.69350049  0.00000000
C        C    0.06760015  0.21989972  0.69249972  0.00000000
C        C    0.20380060  0.38239991  0.72759991  0.00000000
C        C    0.21020059  0.41249983  0.73549983  0.00000000
C        C    0.22780263  0.43610064  0.72290064  0.00000000
C        C    0.24040066  0.42890043  0.70570043  0.00000000
C        C    0.23980066  0.40020070  0.70460070  0.00000000
C        C    0.22760063  0.38079999  0.72139999  0.00000000
C        C    0.25400070  0.39199968  0.68939968  0.00000000
C        C    0.22160263  0.46060067  0.71760067  0.00000000
C        C    0.17719938  0.35369979  0.72829979  0.00000000
C        C    0.07820023  0.40259948  0.64499948  0.00000000
C        C    0.08140160  0.37970136  0.66650136  0.00000000
C        C    0.22079952  0.55899776  0.66279976  0.00000000
H        H    0.14113370  0.27068261  0.63466661  0.00000000
H        H    0.03388009  0.24930885  0.58266085  0.00000000
H        H    0.27342895  0.37667812  0.54114212  0.00000000
H        H    0.37997902  0.44555313  0.55517913  0.00000000
H        H    0.24947891  0.30663007  0.55440607  0.00000000
H        H    0.11183533  0.20301598  0.72735998  0.00000000
H        H    0.10170457  0.38994137  0.69161937  0.00000000
Cr       Cr   0.45480279  0.32880100  0.73560100  0.00000000
Cr       Cr   0.26060103  0.30389904  0.48390104  0.00000000
O        O    0.36580258  0.23490098  0.82230298  0.00000000
O        O    0.32880051  0.21470099  0.84469899  0.00000000
O        O    0.24700278  0.31030109  0.63330109  0.00000000
O        O    0.20020284  0.37980218  0.57720018  0.00000000
O        O    0.23080084  0.32190110  0.58970110  0.00000000
O        O    0.39820071  0.29320101  0.75779901  0.00000000
O        O    0.32180078  0.27420002  0.67040002  0.00000000
O        O    0.45600073  0.32699901  0.77379901  0.00000000
O        O    0.43159882  0.17599886  0.70019886  0.00000000
O        O    0.45060284  0.34130001  0.70170201  0.00000000
O        O    0.34780084  0.26809999  0.64909999  0.00000000
O        O    0.31680312  0.35380106  0.46040106  0.00000000
O        O    0.05480042  0.37690055  0.51750055  0.00000000
O        O    0.26240108  0.32769906  0.45449906  0.00000000
O        O    0.07640085  0.34970021  0.50810021  0.00000000
O        O    0.26320098  0.29319904  0.52000104  0.00000000
O        O    0.29700098  0.27370100  0.53689900  0.00000000
C        C    0.15000003  0.39440042  0.55779842  0.00000000
C        C    0.12320102  0.40510074  0.54690074  0.00000000
C        C    0.08300123  0.37710133  0.52129933  0.00000000
C        C    0.41840063  0.28309900  0.81530100  0.00000000
C        C    0.44500066  0.30650000  0.81170000  0.00000000
C        C    0.43240070  0.30750100  0.78010100  0.00000000
C        C    0.29620085  0.27240102  0.61760102  0.00000000
C        C    0.28980089  0.26449901  0.58749901  0.00000000
C        C    0.27220092  0.27710003  0.56390003  0.00000000
C        C    0.25960289  0.29430105  0.57110105  0.00000000
C        C    0.26020085  0.29540006  0.59980006  0.00000000
C        C    0.27240283  0.27860204  0.61920204  0.00000000
C        C    0.24600082  0.31059908  0.60799908  0.00000000
C        C    0.27840096  0.28240002  0.53940002  0.00000000
C        C    0.32280082  0.27170001  0.64630001  0.00000000
C        C    0.42180098  0.35500002  0.59740002  0.00000000
C        C    0.41860294  0.33350101  0.62030101  0.00000000
C        C    0.27920112  0.33719906  0.44100106  0.00000000
H        H    0.35886672  0.36533310  0.72931710  0.00000000
H        H    0.46612277  0.41733909  0.75069109  0.00000000
H        H    0.20896853  0.06262789  0.77027589  0.00000000
H        H    0.22657278  0.45885825  0.62332225  0.00000000
H        H    0.25052069  0.44559193  0.69336793  0.00000000
H        H    0.38816464  0.27264000  0.79698400  0.00000000
H        H    0.39829694  0.30837999  0.61005799  0.00000000
Cr       Cr   0.90680045  0.78079837  0.67119917  0.00000000
Cr       Cr   0.68000023  0.72329965  0.69610005  0.00000000
O        O    0.08740105  0.95649946  0.76509886  0.00000000
O        O    0.13000125  0.01590029  0.78530029  0.00000000
O        O    0.82299835  0.88629753  0.68969833  0.00000000
O        O    0.69740037  0.87699898  0.62019898  0.00000000
O        O    0.76779833  0.85889923  0.67809863  0.00000000
O        O    0.96460044  0.85959992  0.70679972  0.00000000
O        O    0.89620036  0.84859976  0.72579996  0.00000000
O        O    0.94680048  0.81780018  0.67299938  0.00000000
O        O    0.02420110  0.76860212  0.82400012  0.00000000
O        O    0.86040043  0.75109817  0.65869937  0.00000000
O        O    0.88100033  0.80129942  0.73190022  0.00000000
O        O    0.60660105  0.64359921  0.64619921  0.00000000
O        O    0.64059832  0.96269930  0.62309930  0.00000000
O        O    0.62680023  0.69210031  0.67229939  0.00000000
O        O    0.65840029  0.93170007  0.65030007  0.00000000
O        O    0.72680025  0.75679926  0.70680046  0.00000000
O        O    0.76320025  0.73990040  0.72629926  0.00000000
F        F    0.89660051  0.76210045  0.63169905  0.00000000
C        C    0.66340036  0.90780143  0.60559943  0.00000000
C        C    0.64180036  0.92369996  0.59489996  0.00000000
C        C    0.64420032  0.93829988  0.62289988  0.00000000
C        C    0.03220108  0.89689992  0.71690032  0.00000000
C        C    0.00520173  0.86669992  0.69350092  0.00000000
C        C    0.97260047  0.84770000  0.69249960  0.00000000
C        C    0.84520031  0.82140016  0.72759956  0.00000000
C        C    0.82299828  0.79769925  0.73549845  0.00000000
C        C    0.78680227  0.79170146  0.72290026  0.00000000
C        C    0.77680029  0.81149869  0.70569909  0.00000000
C        C    0.80440032  0.83959940  0.70460040  0.00000000
C        C    0.84060032  0.84679909  0.72139869  0.00000000
C        C    0.79740233  0.86200142  0.68940042  0.00000000
C        C    0.75700226  0.76100145  0.71760025  0.00000000
C        C    0.87460033  0.82349964  0.72830004  0.00000000
C        C    0.74239836  0.67559936  0.64499816  0.00000000
C        C    0.78680236  0.70169916  0.66650036  0.00000000
C        C    0.60380102  0.66180023  0.66280023  0.00000000
H        H    0.86398448  0.87045088  0.63466688  0.00000000
H        H    0.83335253  0.78456980  0.58265980  0.00000000
H        H    0.20764627  0.06130662  0.93737122  0.00000000
H        H    0.66446247  0.89674901  0.54114101  0.00000000
H        H    0.60962440  0.93442468  0.55517868  0.00000000
H        H    0.74777651  0.94284901  0.55440701  0.00000000
H        H    0.02434706  0.90882064  0.72736164  0.00000000
H        H    0.80167833  0.71176267  0.69161887  0.00000000
Cr       Cr   0.90680035  0.12599973  0.73559973  0.00000000
Cr       Cr   0.68000057  0.95670005  0.48390005  0.00000000
O        O    0.08740095  0.13089894  0.82230094  0.00000000
O        O    0.13000115  0.11410081  0.84470081  0.00000000
O        O    0.82299845  0.93669897  0.63329897  0.00000000
O        O    0.69740043  0.82039992  0.57719992  0.00000000
O        O    0.76779847  0.90889797  0.58969997  0.00000000
O        O    0.96460036  0.10500008  0.75780008  0.00000000
O        O    0.89620044  0.04760004  0.67040004  0.00000000
O        O    0.94680032  0.12900142  0.77379942  0.00000000
O        O    0.02420170  0.25560048  0.70020048  0.00000000
O        O    0.86040037  0.10929973  0.70169973  0.00000000
O        O    0.88100047  0.07970038  0.64910038  0.00000000
O        O    0.60660255  0.96300059  0.46040059  0.00000000
O        O    0.64059848  0.67789830  0.51749930  0.00000000
O        O    0.62680057  0.93470105  0.45449905  0.00000000
O        O    0.65840051  0.72669983  0.50809983  0.00000000
O        O    0.72680055  0.97000004  0.52000004  0.00000000
O        O    0.76320055  0.02330007  0.53690007  0.00000000
C        C    0.66340044  0.75560027  0.55779947  0.00000000
C        C    0.64180044  0.71809944  0.54690024  0.00000000
C        C    0.64420048  0.70590092  0.52130072  0.00000000
C        C    0.03220092  0.13529968  0.81529968  0.00000000
C        C    0.00520155  0.13850082  0.81170082  0.00000000
C        C    0.97260033  0.12489930  0.78010130  0.00000000
C        C    0.84520049  0.02379904  0.61760104  0.00000000
C        C    0.82299852  0.02530005  0.58749805  0.00000000
C        C    0.78680253  0.99510004  0.56390004  0.00000000
C        C    0.77680051  0.96530001  0.57110001  0.00000000
C        C    0.80440048  0.96480000  0.59980000  0.00000000
C        C    0.84060048  0.99379901  0.61920101  0.00000000
C        C    0.79740247  0.93540198  0.60799998  0.00000000
C        C    0.75700254  0.99600005  0.53940005  0.00000000
C        C    0.87460047  0.05110066  0.64630066  0.00000000
C        C    0.74239844  0.06679934  0.59739934  0.00000000
C        C    0.78680244  0.08510064  0.62030064  0.00000000
C        C    0.60380058  0.94200007  0.44100007  0.00000000
H        H    0.86398432  0.99353352  0.72931752  0.00000000
H        H    0.83335227  0.04878240  0.75069040  0.00000000
H        H    0.66446233  0.76771289  0.62332089  0.00000000
H        H    0.60962440  0.67519942  0.55444622  0.00000000
H        H    0.74777629  0.80492919  0.69336859  0.00000000
H        H    0.02434694  0.11552596  0.79698596  0.00000000
H        H    0.80167847  0.08991613  0.61005813  0.00000000
Cr       Cr   0.59320012  0.32879922  0.21920002  0.00000000
Cr       Cr   0.81999821  0.30389867  0.27669907  0.00000000
O        O    0.41259826  0.23489890  0.04349830  0.00000000
O        O    0.37000232  0.21470139  0.98410139  0.00000000
O        O    0.67700036  0.31029953  0.11370033  0.00000000
O        O    0.80260245  0.37980092  0.12300092  0.00000000
O        O    0.73220036  0.32190021  0.14109961  0.00000000
O        O    0.53540220  0.29320110  0.14040090  0.00000000
O        O    0.60380024  0.27419984  0.15140004  0.00000000
O        O    0.55320015  0.32700073  0.18219993  0.00000000
O        O    0.47580081  0.17600104  0.23139904  0.00000000
O        O    0.63959811  0.34129801  0.24889921  0.00000000
O        O    0.61900018  0.26809984  0.19870064  0.00000000
O        O    0.89340094  0.35379979  0.35639979  0.00000000
O        O    0.85940063  0.37689987  0.03729987  0.00000000
O        O    0.87320021  0.32770033  0.30789941  0.00000000
O        O    0.84160056  0.34969986  0.06829986  0.00000000
O        O    0.77319823  0.29319828  0.24319948  0.00000000
O        O    0.73680217  0.27370145  0.26010031  0.00000000
C        C    0.83660252  0.39440191  0.09219991  0.00000000
C        C    0.85820056  0.40509991  0.07629991  0.00000000
C        C    0.85580259  0.37710188  0.06170188  0.00000000
C        C    0.46779821  0.28309812  0.10309852  0.00000000
C        C    0.49480018  0.30649964  0.13330064  0.00000000
C        C    0.52740018  0.30750042  0.15230002  0.00000000
C        C    0.65480024  0.27240022  0.17859962  0.00000000
C        C    0.67700022  0.26450030  0.20229950  0.00000000
C        C    0.71320024  0.27709949  0.20829829  0.00000000
C        C    0.72320028  0.29429970  0.18850010  0.00000000
C        C    0.69560030  0.29539941  0.16040041  0.00000000
C        C    0.65940028  0.27860011  0.15319971  0.00000000
C        C    0.70260034  0.31060042  0.13799942  0.00000000
C        C    0.74300021  0.28239948  0.23899828  0.00000000
C        C    0.62540022  0.27170033  0.17650073  0.00000000
C        C    0.75760009  0.35500077  0.32439957  0.00000000
C        C    0.71320009  0.33349887  0.29830007  0.00000000
C        C    0.89620098  0.33720027  0.33820027  0.00000000
H        H    0.63601630  0.36533351  0.12954951  0.00000000
H        H    0.66664819  0.41733936  0.21542936  0.00000000
H        H    0.83553650  0.45885798  0.10324998  0.00000000
H        H    0.89037461  0.44482092  0.06557492  0.00000000
H        H    0.75222451  0.44559401  0.05715201  0.00000000
H        H    0.47565623  0.27264011  0.09118111  0.00000000
H        H    0.69832210  0.30838085  0.28823705  0.00000000
Cr       Cr   0.59320068  0.26439888  0.87399888  0.00000000
Cr       Cr   0.81999859  0.51609903  0.04329903  0.00000000
O        O    0.41259854  0.17769690  0.86909890  0.00000000
O        O    0.37000248  0.15530091  0.88590091  0.00000000
O        O    0.67700044  0.36669897  0.06329897  0.00000000
O        O    0.80260235  0.42279998  0.17959998  0.00000000
O        O    0.73220044  0.41029899  0.09110099  0.00000000
O        O    0.53540260  0.24220090  0.89500090  0.00000000
O        O    0.60380056  0.32959996  0.95239996  0.00000000
O        O    0.55320065  0.22620087  0.87099887  0.00000000
O        O    0.47580079  0.29980096  0.74440096  0.00000000
O        O    0.63959869  0.29829789  0.89069789  0.00000000
O        O    0.61900062  0.35089996  0.92029996  0.00000000
O        O    0.89340066  0.53959901  0.03699901  0.00000000
O        O    0.85940017  0.48249973  0.32210073  0.00000000
O        O    0.87320059  0.54550103  0.06529903  0.00000000
O        O    0.84160024  0.49190004  0.27330004  0.00000000
O        O    0.77319857  0.47999902  0.02999902  0.00000000
O        O    0.73680263  0.46310102  0.97670102  0.00000000
C        C    0.83660228  0.44220179  0.24440099  0.00000000
C        C    0.85820024  0.45309949  0.28190029  0.00000000
C        C    0.85580221  0.47870092  0.29410072  0.00000000
C        C    0.46779859  0.18469888  0.86469888  0.00000000
C        C    0.49480062  0.18829986  0.86149986  0.00000000
C        C    0.52740062  0.21989888  0.87510088  0.00000000
C        C    0.65480056  0.38239898  0.97620098  0.00000000
C        C    0.67700058  0.41250100  0.97469900  0.00000000
C        C    0.71320056  0.43610001  0.00490001  0.00000000
C        C    0.72320052  0.42889900  0.03469900  0.00000000
C        C    0.69560050  0.40019999  0.03519999  0.00000000
C        C    0.65940052  0.38079799  0.00619999  0.00000000
C        C    0.70260046  0.39200098  0.06459898  0.00000000
C        C    0.74300059  0.46060002  0.00400002  0.00000000
C        C    0.62540058  0.35369997  0.94889997  0.00000000
C        C    0.75760071  0.40259993  0.93319993  0.00000000
C        C    0.71320071  0.37969893  0.91489893  0.00000000
C        C    0.89619862  0.55899903  0.05799903  0.00000000
H        H    0.63601650  0.27068289  0.00646689  0.00000000
H        H    0.66664861  0.24930884  0.95121684  0.00000000
H        H    0.29235247  0.22972403  0.85366003  0.00000000
H        H    0.83553630  0.37667792  0.23228592  0.00000000
H        H    0.75222429  0.30663219  0.19507159  0.00000000
H        H    0.47565657  0.20301589  0.88447589  0.00000000
H        H    0.69832270  0.38994195  0.91008395  0.00000000
Cr       Cr   0.10960109  0.32880164  0.87399964  0.00000000
Cr       Cr   0.02720075  0.30390070  0.04330070  0.00000000
O        O    0.19140096  0.23490109  0.86909909  0.00000000
O        O    0.23060037  0.21469965  0.88589965  0.00000000
O        O    0.19660086  0.31030060  0.06329860  0.00000000
O        O    0.25679872  0.37979966  0.17959766  0.00000000
O        O    0.18080080  0.32189963  0.09109963  0.00000000
O        O    0.15279909  0.29319858  0.89499858  0.00000000
O        O    0.12280297  0.27420159  0.95240159  0.00000000
O        O    0.14480112  0.32699861  0.87099861  0.00000000
O        O    0.94460036  0.17599856  0.74440056  0.00000000
O        O    0.09240105  0.34130066  0.89069866  0.00000000
O        O    0.06940098  0.26809861  0.92029861  0.00000000
O        O    0.99740074  0.35380076  0.03699876  0.00000000
O        O    0.33959856  0.37689844  0.32209884  0.00000000
O        O    0.01980071  0.32770073  0.06530073  0.00000000
O        O    0.28140059  0.34969864  0.27329864  0.00000000
O        O    0.05000079  0.29319967  0.02999967  0.00000000
O        O    0.01360085  0.27369966  0.97669966  0.00000000
F        F    0.13040112  0.36829966  0.86549966  0.00000000
C        C    0.30220065  0.39439926  0.24440006  0.00000000
C        C    0.32879861  0.40509976  0.28189956  0.00000000
C        C    0.31540058  0.37709985  0.29409945  0.00000000
C        C    0.17999996  0.28309965  0.86469965  0.00000000
C        C    0.17319936  0.30649905  0.86149905  0.00000000
C        C    0.15520112  0.30750059  0.87510059  0.00000000
C        C    0.09380091  0.27240061  0.97620061  0.00000000
C        C    0.06220089  0.26449962  0.97469962  0.00000000
C        C    0.06880085  0.27709964  0.00489964  0.00000000
C        C    0.10580283  0.29430164  0.03469964  0.00000000
C        C    0.13500085  0.29539962  0.03519962  0.00000000
C        C    0.12539889  0.27859960  0.00619760  0.00000000
C        C    0.17260083  0.31059962  0.06459962  0.00000000
C        C    0.04340083  0.28239966  0.00399966  0.00000000
C        C    0.09520296  0.27169960  0.94889960  0.00000000
C        C    0.03060093  0.35499972  0.93319972  0.00000000
C        C    0.03520096  0.33350070  0.91489870  0.00000000
C        C    0.99900071  0.33719975  0.05799975  0.00000000
H        H    0.23578698  0.36533463  0.00646863  0.00000000
H        H    0.20190904  0.41733969  0.95121769  0.00000000
H        H    0.35560871  0.45885769  0.23228569  0.00000000
H        H    0.37924858  0.44482108  0.32480028  0.00000000
H        H    0.38844080  0.44559165  0.19507165  0.00000000
H        H    0.18145933  0.27263834  0.88447434  0.00000000
H        H    0.02014296  0.30837868  0.91008268  0.00000000
Cr       Cr   0.39039876  0.26439987  0.21919907  0.00000000
Cr       Cr   0.47280274  0.51610169  0.27670169  0.00000000
O        O    0.30859818  0.17769910  0.04349830  0.00000000
O        O    0.26940024  0.15529919  0.98409999  0.00000000
O        O    0.30339886  0.36669861  0.11369861  0.00000000
O        O    0.24320080  0.42279970  0.12299970  0.00000000
O        O    0.31920083  0.41029965  0.14109965  0.00000000
O        O    0.34720085  0.24219946  0.14039946  0.00000000
O        O    0.37720086  0.32960053  0.15140053  0.00000000
O        O    0.35520079  0.22619815  0.18219875  0.00000000
O        O    0.55540007  0.29979971  0.23139911  0.00000000
O        O    0.40760073  0.29829990  0.24889910  0.00000000
O        O    0.43059883  0.35089723  0.19869783  0.00000000
O        O    0.50260263  0.53960121  0.35640021  0.00000000
O        O    0.16040087  0.48249979  0.03729979  0.00000000
O        O    0.48020069  0.54550072  0.30790072  0.00000000
O        O    0.21859887  0.49189777  0.06829777  0.00000000
O        O    0.45000077  0.47999966  0.24319966  0.00000000
O        O    0.48640077  0.46309962  0.26009962  0.00000000
F        F    0.45140076  0.53369971  0.24869771  0.00000000
C        C    0.19780081  0.44219974  0.09219974  0.00000000
C        C    0.17120081  0.45310077  0.07630077  0.00000000
C        C    0.18459885  0.47869778  0.06169978  0.00000000
C        C    0.32000009  0.18470041  0.10309901  0.00000000
C        C    0.32680005  0.18829930  0.13329950  0.00000000
C        C    0.34480083  0.21990024  0.15230064  0.00000000
C        C    0.40620084  0.38240057  0.17860057  0.00000000
C        C    0.43780083  0.41249959  0.20229959  0.00000000
C        C    0.43120081  0.43610062  0.20829862  0.00000000
C        C    0.39420281  0.42890063  0.18850063  0.00000000
C        C    0.36499884  0.40019861  0.16039861  0.00000000
C        C    0.37460085  0.38079959  0.15319959  0.00000000
C        C    0.32740084  0.39199962  0.13799962  0.00000000
C        C    0.45660078  0.46060063  0.23899863  0.00000000
C        C    0.40480084  0.35369795  0.17649915  0.00000000
C        C    0.46940066  0.40259939  0.32439979  0.00000000
C        C    0.46480069  0.37970006  0.29829906  0.00000000
C        C    0.50100066  0.55899973  0.33819973  0.00000000
H        H    0.26421680  0.27068304  0.12955004  0.00000000
H        H    0.29809069  0.24930921  0.21542981  0.00000000
H        H    0.14439475  0.37667871  0.10325071  0.00000000
H        H    0.12075279  0.44555179  0.06557379  0.00000000
H        H    0.11156080  0.30663065  0.05715265  0.00000000
H        H    0.31854011  0.20301413  0.09117933  0.00000000
H        H    0.47985672  0.38993956  0.28823556  0.00000000
Cr       Cr   0.10959971  0.78079966  0.73559886  0.00000000
Cr       Cr   0.02720045  0.72330040  0.48390040  0.00000000
O        O    0.19140104  0.95650151  0.82230071  0.00000000
O        O    0.23060043  0.01589845  0.84469925  0.00000000
O        O    0.19659994  0.88629929  0.63329929  0.00000000
O        O    0.25680088  0.87699864  0.57719864  0.00000000
O        O    0.18080140  0.85889997  0.58969997  0.00000000
O        O    0.15280071  0.85959882  0.75779882  0.00000000
O        O    0.12280043  0.84859961  0.67039961  0.00000000
O        O    0.14480128  0.81779979  0.77380039  0.00000000
O        O    0.94460044  0.76860004  0.70019944  0.00000000
O        O    0.09239935  0.75110044  0.70169964  0.00000000
O        O    0.06939982  0.80129899  0.64909959  0.00000000
O        O    0.99740086  0.64360004  0.46039904  0.00000000
O        O    0.33960104  0.96269966  0.51749966  0.00000000
O        O    0.01980181  0.69210003  0.45450003  0.00000000
O        O    0.28140101  0.93169966  0.50809966  0.00000000
O        O    0.04999961  0.75680003  0.52000003  0.00000000
O        O    0.01360189  0.73989921  0.53689921  0.00000000
F        F    0.13040128  0.76210104  0.76490104  0.00000000
C        C    0.30220295  0.90779964  0.55779964  0.00000000
C        C    0.32880099  0.92369964  0.54689964  0.00000000
C        C    0.31540102  0.93829765  0.52129965  0.00000000
C        C    0.18000004  0.89690125  0.81529985  0.00000000
C        C    0.17319944  0.86669913  0.81169933  0.00000000
C        C    0.15520088  0.84769971  0.78010011  0.00000000
C        C    0.09380129  0.82139999  0.61759999  0.00000000
C        C    0.06220151  0.79770008  0.58750008  0.00000000
C        C    0.06880195  0.79170126  0.56389926  0.00000000
C        C    0.10580037  0.81149946  0.57109946  0.00000000
C        C    0.13499975  0.83959918  0.59979918  0.00000000
C        C    0.12540111  0.84679990  0.61919990  0.00000000
C        C    0.17260177  0.86200018  0.60800018  0.00000000
C        C    0.04340197  0.76100124  0.53939924  0.00000000
C        C    0.09520024  0.82349890  0.64630010  0.00000000
C        C    0.03060187  0.67559998  0.59740038  0.00000000
C        C    0.03519944  0.70169950  0.62029850  0.00000000
C        C    0.99899889  0.66179955  0.44099955  0.00000000
H        H    0.23578462  0.87045017  0.72931717  0.00000000
H        H    0.20191056  0.78457031  0.75069091  0.00000000
H        H    0.12393587  0.06130864  0.77027464  0.00000000
H        H    0.35560889  0.89674961  0.62332161  0.00000000
H        H    0.38844280  0.94284765  0.69336965  0.00000000
H        H    0.18145947  0.90881866  0.79698386  0.00000000
H        H    0.02014444  0.71176252  0.61005852  0.00000000
Cr       Cr   0.39040084  0.12600083  0.67119883  0.00000000
Cr       Cr   0.47280086  0.95670061  0.69610061  0.00000000
O        O    0.30859862  0.13090090  0.76509890  0.00000000
O        O    0.26940056  0.11409891  0.78529891  0.00000000
O        O    0.30340074  0.93670069  0.68969869  0.00000000
O        O    0.24320080  0.82039960  0.62019760  0.00000000
O        O    0.31919877  0.90889865  0.67809865  0.00000000
O        O    0.34720075  0.10499884  0.70679884  0.00000000
O        O    0.37720074  0.04759977  0.72579977  0.00000000
O        O    0.35520281  0.12900085  0.67300085  0.00000000
O        O    0.55540073  0.25559889  0.82400089  0.00000000
O        O    0.40760087  0.10930180  0.65869980  0.00000000
O        O    0.43060077  0.07969977  0.73189977  0.00000000
O        O    0.50260097  0.96300059  0.64619859  0.00000000
O        O    0.16039973  0.67789881  0.62309921  0.00000000
O        O    0.48020291  0.93470058  0.67230058  0.00000000
O        O    0.21860073  0.72669953  0.65029953  0.00000000
O        O    0.45000083  0.97000064  0.70680064  0.00000000
O        O    0.48640083  0.02329868  0.72629868  0.00000000
C        C    0.19780159  0.75559856  0.60559936  0.00000000
C        C    0.17119999  0.71809923  0.59489903  0.00000000
C        C    0.18460095  0.70589882  0.62289842  0.00000000
C        C    0.32000071  0.13530089  0.71690089  0.00000000
C        C    0.32680075  0.13849988  0.69349988  0.00000000
C        C    0.34479877  0.12489886  0.69249886  0.00000000
C        C    0.40619876  0.02379873  0.72759873  0.00000000
C        C    0.43780277  0.02530071  0.73550071  0.00000000
C        C    0.43120079  0.99509968  0.72289968  0.00000000
C        C    0.39420079  0.96530067  0.70569867  0.00000000
C        C    0.36500076  0.96479969  0.70459969  0.00000000
C        C    0.37459875  0.99379971  0.72139771  0.00000000
C        C    0.32740276  0.93540068  0.68940068  0.00000000
C        C    0.45660082  0.99599967  0.71759967  0.00000000
C        C    0.40480076  0.05109975  0.72829975  0.00000000
C        C    0.46940094  0.06679971  0.64499971  0.00000000
C        C    0.46480091  0.08510074  0.66649874  0.00000000
C        C    0.50100094  0.94200057  0.66280057  0.00000000
H        H    0.26421680  0.99353276  0.63466676  0.00000000
H        H    0.29809291  0.04878279  0.58266079  0.00000000
H        H    0.37606440  0.14633991  0.93737191  0.00000000
H        H    0.14439285  0.76771359  0.54114159  0.00000000
H        H    0.11156140  0.80492795  0.55440795  0.00000000
H        H    0.31854069  0.11552387  0.72735987  0.00000000
H        H    0.47985888  0.08991574  0.69161974  0.00000000
Cr       Cr   0.60960284  0.87400036  0.78080056  0.00000000
Cr       Cr   0.52719886  0.04329967  0.72329967  0.00000000
O        O    0.69139942  0.86909885  0.95649885  0.00000000
O        O    0.73060136  0.88589985  0.01589985  0.00000000
O        O    0.69660274  0.06330122  0.88630002  0.00000000
O        O    0.75680080  0.17959970  0.87699970  0.00000000
O        O    0.68080077  0.09110165  0.85889965  0.00000000
O        O    0.65280075  0.89499808  0.85959888  0.00000000
O        O    0.62280074  0.95239845  0.84859865  0.00000000
O        O    0.64480081  0.87099955  0.81779935  0.00000000
O        O    0.44460153  0.74439983  0.76859983  0.00000000
O        O    0.59240087  0.89069929  0.75109969  0.00000000
O        O    0.56940277  0.92030064  0.80130044  0.00000000
O        O    0.49739897  0.03699967  0.64359767  0.00000000
O        O    0.83960073  0.32210181  0.96269981  0.00000000
O        O    0.51980091  0.06529869  0.69209869  0.00000000
O        O    0.78140273  0.27330079  0.93170079  0.00000000
O        O    0.55000083  0.02999965  0.75679965  0.00000000
O        O    0.51360083  0.97669962  0.73989962  0.00000000
F        F    0.63040008  0.86549930  0.76209990  0.00000000
C        C    0.80220079  0.24439874  0.90779874  0.00000000
C        C    0.82880079  0.28189977  0.92369977  0.00000000
C        C    0.81540275  0.29410079  0.93830079  0.00000000
C        C    0.68000151  0.86469984  0.89689984  0.00000000
C        C    0.67320155  0.86150083  0.86670083  0.00000000
C        C    0.65520077  0.87510035  0.84770055  0.00000000
C        C    0.59380076  0.97619858  0.82139858  0.00000000
C        C    0.56220077  0.97469920  0.79769800  0.00000000
C        C    0.56880079  0.00489862  0.79170062  0.00000000
C        C    0.60579879  0.03469863  0.81149863  0.00000000
C        C    0.63500276  0.03519992  0.83959932  0.00000000
C        C    0.62540075  0.00619980  0.84679940  0.00000000
C        C    0.67260076  0.06459863  0.86200063  0.00000000
C        C    0.54340082  0.00399863  0.76100063  0.00000000
C        C    0.59520076  0.94889976  0.82349936  0.00000000
C        C    0.53060094  0.93320155  0.67559955  0.00000000
C        C    0.53520091  0.91489853  0.70170053  0.00000000
C        C    0.49900094  0.05799869  0.66179869  0.00000000
H        H    0.73578480  0.00646694  0.87045014  0.00000000
H        H    0.70191091  0.95121759  0.78456939  0.00000000
H        H    0.85560685  0.23228570  0.89674770  0.00000000
H        H    0.88844080  0.19507165  0.94284765  0.00000000
H        H    0.68146149  0.88447486  0.90882086  0.00000000
H        H    0.52014488  0.91008554  0.71176354  0.00000000
Cr       Cr   0.89040051  0.21919961  0.12599981  0.00000000
Cr       Cr   0.97280085  0.27670068  0.95670068  0.00000000
O        O    0.80860124  0.04349998  0.13089998  0.00000000
O        O    0.76940123  0.98409895  0.11409895  0.00000000
O        O    0.80340074  0.11370022  0.93669902  0.00000000
O        O    0.74320288  0.12300064  0.82040064  0.00000000
O        O    0.81920080  0.14110063  0.90889863  0.00000000
O        O    0.84720251  0.14040025  0.10500105  0.00000000
O        O    0.87719863  0.15139853  0.04759873  0.00000000
O        O    0.85520048  0.18219879  0.12899859  0.00000000
O        O    0.05540164  0.23140025  0.25560025  0.00000000
O        O    0.90760055  0.24889953  0.10929993  0.00000000
O        O    0.93060062  0.19870076  0.07970056  0.00000000
O        O    0.00260086  0.35640075  0.96299875  0.00000000
O        O    0.66040304  0.03730158  0.67789958  0.00000000
O        O    0.98020089  0.30789971  0.93469971  0.00000000
O        O    0.71860101  0.06829858  0.72669858  0.00000000
O        O    0.95000081  0.24319867  0.96999867  0.00000000
O        O    0.98640075  0.26009867  0.02329867  0.00000000
C        C    0.69780095  0.09219962  0.75559962  0.00000000
C        C    0.67120299  0.07629962  0.71809962  0.00000000
C        C    0.68460102  0.06169859  0.70589859  0.00000000
C        C    0.82000124  0.10310004  0.13530004  0.00000000
C        C    0.82680124  0.13330006  0.13850006  0.00000000
C        C    0.84480048  0.15230057  0.12490077  0.00000000
C        C    0.90620069  0.17859964  0.02379964  0.00000000
C        C    0.93780071  0.20230024  0.02529904  0.00000000
C        C    0.93120075  0.20829865  0.99510065  0.00000000
C        C    0.89419877  0.18849865  0.96529865  0.00000000
C        C    0.86500075  0.16039993  0.96479933  0.00000000
C        C    0.87460271  0.15320083  0.99380043  0.00000000
C        C    0.82740077  0.13799963  0.93540163  0.00000000
C        C    0.95660077  0.23899866  0.99600066  0.00000000
C        C    0.90479864  0.17649884  0.05109844  0.00000000
C        C    0.96940067  0.32440176  0.06679976  0.00000000
C        C    0.96480064  0.29829874  0.08510074  0.00000000
C        C    0.00100089  0.33819973  0.94199973  0.00000000
H        H    0.76421462  0.12954707  0.99353027  0.00000000
H        H    0.79809256  0.21543085  0.04878265  0.00000000
H        H    0.87606527  0.93869184  0.14633984  0.00000000
H        H    0.64439289  0.10325167  0.76771367  0.00000000
H        H    0.62075302  0.06557463  0.67519863  0.00000000
H        H    0.61156080  0.05715265  0.80492865  0.00000000
H        H    0.81854127  0.09117902  0.11552502  0.00000000
H        H    0.97985864  0.28823672  0.08991472  0.00000000
Cr       Cr   0.60960076  0.73559984  0.32879984  0.00000000
Cr       Cr   0.52720074  0.48390043  0.30390083  0.00000000
O        O    0.69139898  0.82229885  0.23489885  0.00000000
O        O    0.73060104  0.84469885  0.21469885  0.00000000
O        O    0.69660086  0.63329968  0.31029968  0.00000000
O        O    0.75680080  0.57719970  0.37979950  0.00000000
O        O    0.68080283  0.58970065  0.32190065  0.00000000
O        O    0.65280085  0.75779982  0.29319982  0.00000000
O        O    0.62280086  0.67039975  0.27419975  0.00000000
O        O    0.64479879  0.77379785  0.32699785  0.00000000
O        O    0.44460087  0.70019987  0.17599987  0.00000000
O        O    0.59240073  0.70169981  0.34129981  0.00000000
O        O    0.56940083  0.64910076  0.26810076  0.00000000
O        O    0.49740063  0.46040003  0.35379923  0.00000000
O        O    0.83960287  0.51750089  0.37690009  0.00000000
O        O    0.51979869  0.45449831  0.32769891  0.00000000
O        O    0.78140087  0.50809811  0.34969891  0.00000000
O        O    0.55000077  0.51999865  0.29319865  0.00000000
O        O    0.51360077  0.53689868  0.27369868  0.00000000
F        F    0.63040072  0.76489886  0.36829886  0.00000000
C        C    0.80220081  0.55779966  0.39439946  0.00000000
C        C    0.82880081  0.54689833  0.40509873  0.00000000
C        C    0.81540085  0.52129851  0.37709851  0.00000000
C        C    0.68000089  0.81529986  0.28309986  0.00000000
C        C    0.67320085  0.81169987  0.30649987  0.00000000
C        C    0.65520283  0.78010185  0.30750185  0.00000000
C        C    0.59380284  0.61760072  0.27240072  0.00000000
C        C    0.56219883  0.58749870  0.26449870  0.00000000
C        C    0.56880081  0.56389968  0.27709968  0.00000000
C        C    0.60580081  0.57109867  0.29430067  0.00000000
C        C    0.63500084  0.59979868  0.29540068  0.00000000
C        C    0.62540285  0.61919970  0.27860170  0.00000000
C        C    0.67259884  0.60799967  0.31059967  0.00000000
C        C    0.54340078  0.53939967  0.28239967  0.00000000
C        C    0.59520084  0.64629874  0.27170074  0.00000000
C        C    0.53060066  0.59740075  0.35500075  0.00000000
C        C    0.53520069  0.62029977  0.33349977  0.00000000
C        C    0.49900066  0.44099951  0.33719971  0.00000000
H        H    0.73578480  0.72931476  0.36533276  0.00000000
H        H    0.70190869  0.75069081  0.41733881  0.00000000
H        H    0.62393720  0.77027481  0.06262881  0.00000000
H        H    0.85560875  0.62332150  0.45885970  0.00000000
H        H    0.88844080  0.69336765  0.44559365  0.00000000
H        H    0.68146091  0.79698484  0.27263884  0.00000000
H        H    0.52014272  0.61005776  0.30837776  0.00000000
Cr       Cr   0.89040109  0.67119959  0.26439959  0.00000000
Cr       Cr   0.97280075  0.69610042  0.51610082  0.00000000
O        O    0.80860116  0.76509972  0.17769972  0.00000000
O        O    0.76940117  0.78529975  0.15529975  0.00000000
O        O    0.80340086  0.68969968  0.36669968  0.00000000
O        O    0.74320072  0.62019976  0.42279956  0.00000000
O        O    0.81920080  0.67810067  0.41030067  0.00000000
O        O    0.84720109  0.70679865  0.24219865  0.00000000
O        O    0.87720097  0.72579867  0.32959867  0.00000000
O        O    0.85520112  0.67299961  0.22619961  0.00000000
O        O    0.05540156  0.82399985  0.29979985  0.00000000
O        O    0.90760305  0.65870057  0.29830057  0.00000000
O        O    0.93060098  0.73189964  0.35089964  0.00000000
O        O    0.00260136  0.64620026  0.53959946  0.00000000
O        O    0.66040056  0.62310112  0.48250032  0.00000000
O        O    0.98020071  0.67229829  0.54549889  0.00000000
O        O    0.71860059  0.65029932  0.49190012  0.00000000
O        O    0.95000279  0.70680063  0.48000063  0.00000000
O        O    0.98639885  0.72629863  0.46309863  0.00000000
F        F    0.86960032  0.63169972  0.23509972  0.00000000
F        F    0.95140071  0.70269924  0.53370004  0.00000000
C        C    0.69779865  0.60559778  0.44219758  0.00000000
C        C    0.67120061  0.59489948  0.45309988  0.00000000
C        C    0.68460058  0.62289971  0.47869971  0.00000000
C        C    0.82000116  0.71689966  0.18469966  0.00000000
C        C    0.82680116  0.69350064  0.18830064  0.00000000
C        C    0.84480112  0.69250063  0.21990063  0.00000000
C        C    0.90620091  0.72759866  0.38239866  0.00000000
C        C    0.93780089  0.73549866  0.41249866  0.00000000
C        C    0.93119885  0.72289865  0.43609865  0.00000000
C        C    0.89420083  0.70569865  0.42890065  0.00000000
C        C    0.86500085  0.70459767  0.40019967  0.00000000
C        C    0.87460089  0.72139867  0.38080067  0.00000000
C        C    0.82739883  0.68939867  0.39199867  0.00000000
C        C    0.95659883  0.71759864  0.46059864  0.00000000
C        C    0.90480096  0.72829866  0.35370066  0.00000000
C        C    0.96939893  0.64499954  0.40259954  0.00000000
C        C    0.96480296  0.66650056  0.37970056  0.00000000
C        C    0.00100200  0.66279912  0.55899932  0.00000000
H        H    0.76421698  0.63466563  0.27068363  0.00000000
H        H    0.79809104  0.58265955  0.24930755  0.00000000
H        H    0.64439271  0.54114053  0.37667873  0.00000000
H        H    0.61155880  0.55440565  0.30663165  0.00000000
H        H    0.81854113  0.72736068  0.20301468  0.00000000
H        H    0.97985696  0.69162058  0.38994058  0.00000000
Cr       Cr   0.95480104  0.21920011  0.32880011  0.00000000
Cr       Cr   0.76060092  0.27670048  0.30390048  0.00000000
O        O    0.86580112  0.04349997  0.23489997  0.00000000
O        O    0.82880112  0.98409993  0.21469993  0.00000000
O        O    0.74700090  0.11370013  0.31030013  0.00000000
O        O    0.70020075  0.12300108  0.37979908  0.00000000
O        O    0.73080087  0.14110017  0.32190017  0.00000000
O        O    0.89820105  0.14040106  0.29319906  0.00000000
O        O    0.82180102  0.15139911  0.27420111  0.00000000
O        O    0.95600104  0.18220007  0.32700007  0.00000000
O        O    0.93160046  0.23139991  0.17599951  0.00000000
O        O    0.95060101  0.24890015  0.34130015  0.00000000
O        O    0.84780105  0.19870014  0.26810014  0.00000000
O        O    0.81680009  0.35639985  0.35379923  0.00000000
O        O    0.55480064  0.03730078  0.37689878  0.00000000
O        O    0.76240089  0.30790062  0.32770062  0.00000000
O        O    0.57640070  0.06830059  0.34970059  0.00000000
O        O    0.76320094  0.24320024  0.29320024  0.00000000
O        O    0.79700100  0.26010024  0.27370024  0.00000000
F        F    0.71499890  0.24869868  0.29730068  0.00000000
C        C    0.65000069  0.09220008  0.39440008  0.00000000
C        C    0.62320065  0.07630138  0.40509938  0.00000000
C        C    0.58300266  0.06170119  0.37710119  0.00000000
C        C    0.91839908  0.10309801  0.28310001  0.00000000
C        C    0.94500107  0.13330003  0.30650003  0.00000000
C        C    0.93240105  0.15230005  0.30750005  0.00000000
C        C    0.79620100  0.17860016  0.27240016  0.00000000
C        C    0.78980101  0.20230018  0.26450018  0.00000000
C        C    0.77219897  0.20829920  0.27709920  0.00000000
C        C    0.75960094  0.18850019  0.29430219  0.00000000
C        C    0.76020094  0.16040116  0.29540116  0.00000000
C        C    0.77240097  0.15320215  0.27860015  0.00000000
C        C    0.74600090  0.13800015  0.31060015  0.00000000
C        C    0.77840297  0.23900123  0.28240123  0.00000000
C        C    0.82280302  0.17650114  0.27170314  0.00000000
C        C    0.92180097  0.32440024  0.35500024  0.00000000
C        C    0.91859900  0.29829921  0.33349921  0.00000000
C        C    0.77920208  0.33820169  0.33720039  0.00000000
H        H    0.85886890  0.12955009  0.36533609  0.00000000
H        H    0.96612091  0.21543012  0.41733812  0.00000000
H        H    0.72657265  0.10325126  0.45885926  0.00000000
H        H    0.75052269  0.05715410  0.44559410  0.00000000
H        H    0.88816707  0.09118001  0.27264001  0.00000000
H        H    0.89829703  0.28823721  0.30837921  0.00000000
Cr       Cr   0.54519881  0.87400000  0.26439800  0.00000000
Cr       Cr   0.73940057  0.04329930  0.51610130  0.00000000
O        O    0.63419902  0.86909892  0.17769892  0.00000000
O        O    0.67120109  0.88590091  0.15529891  0.00000000
O        O    0.75299882  0.06330008  0.36669808  0.00000000
O        O    0.79979876  0.17959908  0.42279908  0.00000000
O        O    0.76920076  0.09110011  0.41030011  0.00000000
O        O    0.60180089  0.89499998  0.24219998  0.00000000
O        O    0.67820082  0.95240001  0.32960001  0.00000000
O        O    0.54400087  0.87099999  0.22619999  0.00000000
O        O    0.56840278  0.74439986  0.29980186  0.00000000
O        O    0.54939876  0.89069902  0.29829902  0.00000000
O        O    0.65220076  0.92030100  0.35089900  0.00000000
O        O    0.68319848  0.03699773  0.53959973  0.00000000
O        O    0.94520078  0.32209985  0.48249985  0.00000000
O        O    0.73760052  0.06530043  0.54550043  0.00000000
O        O    0.92360075  0.27330162  0.49189962  0.00000000
O        O    0.73680062  0.03000008  0.48000008  0.00000000
O        O    0.70300062  0.97670005  0.46310005  0.00000000
C        C    0.85000077  0.24440012  0.44220012  0.00000000
C        C    0.87680078  0.28190045  0.45310045  0.00000000
C        C    0.91700077  0.29410124  0.47869924  0.00000000
C        C    0.58160097  0.86469895  0.18470095  0.00000000
C        C    0.55500094  0.86150097  0.18829897  0.00000000
C        C    0.56760090  0.87509998  0.21989998  0.00000000
C        C    0.70380075  0.97620003  0.38240003  0.00000000
C        C    0.71020071  0.97470003  0.41250003  0.00000000
C        C    0.72780068  0.00490006  0.43610006  0.00000000
C        C    0.74039871  0.03469908  0.42890108  0.00000000
C        C    0.73980075  0.03520207  0.40020007  0.00000000
C        C    0.72759877  0.00620005  0.38080005  0.00000000
C        C    0.75400078  0.06460009  0.39200009  0.00000000
C        C    0.72160064  0.00400006  0.46060006  0.00000000
C        C    0.67720078  0.94890101  0.35370101  0.00000000
C        C    0.57820062  0.93320007  0.40260007  0.00000000
C        C    0.58139866  0.91489904  0.37969904  0.00000000
C        C    0.72080048  0.05800024  0.55900024  0.00000000
H        H    0.64113488  0.00646808  0.27068408  0.00000000
H        H    0.53387883  0.95121808  0.24930808  0.00000000
H        H    0.79103307  0.85366182  0.22972382  0.00000000
H        H    0.77342882  0.23228634  0.37668034  0.00000000
H        H    0.74948091  0.19507321  0.30663321  0.00000000
H        H    0.61183696  0.88447396  0.20301596  0.00000000
H        H    0.60170466  0.91008403  0.38994003  0.00000000
Cr       Cr   0.54520079  0.67120040  0.78080040  0.00000000
Cr       Cr   0.73939903  0.69609920  0.72329920  0.00000000
O        O    0.63419938  0.76509878  0.95649878  0.00000000
O        O    0.67120131  0.78529979  0.01589979  0.00000000
O        O    0.75300078  0.68969962  0.88629962  0.00000000
O        O    0.79980084  0.62020112  0.87699912  0.00000000
O        O    0.76920084  0.67809919  0.85889919  0.00000000
O        O    0.60180071  0.70680172  0.85959972  0.00000000
O        O    0.67820078  0.72579939  0.84860139  0.00000000
O        O    0.54400273  0.67300121  0.81780121  0.00000000
O        O    0.56840082  0.82399964  0.76859924  0.00000000
O        O    0.54940084  0.65870048  0.75110048  0.00000000
O        O    0.65219884  0.73189920  0.80129920  0.00000000
O        O    0.68319832  0.64619807  0.64359745  0.00000000
O        O    0.94520082  0.62310005  0.96269805  0.00000000
O        O    0.73760108  0.67230017  0.69210017  0.00000000
O        O    0.92360285  0.65030108  0.93170108  0.00000000
O        O    0.73680298  0.70680122  0.75680122  0.00000000
O        O    0.70300298  0.72630125  0.73990125  0.00000000
F        F    0.49720278  0.63170159  0.76210159  0.00000000
F        F    0.78500103  0.70269918  0.75130118  0.00000000
C        C    0.85000083  0.60560008  0.90780008  0.00000000
C        C    0.87680282  0.59490205  0.92370005  0.00000000
C        C    0.91700283  0.62290106  0.93830106  0.00000000
C        C    0.58160143  0.71689875  0.89690075  0.00000000
C        C    0.55500146  0.69349973  0.86669973  0.00000000
C        C    0.56759870  0.69249942  0.84769942  0.00000000
C        C    0.70380085  0.72760027  0.82140027  0.00000000
C        C    0.71020089  0.73549967  0.79769967  0.00000000
C        C    0.72780092  0.72290124  0.79170124  0.00000000
C        C    0.74040089  0.70569922  0.81150122  0.00000000
C        C    0.73980085  0.70459993  0.83959993  0.00000000
C        C    0.72760083  0.72140105  0.84679905  0.00000000
C        C    0.75399882  0.68940021  0.86200021  0.00000000
C        C    0.72160096  0.71760124  0.76100124  0.00000000
C        C    0.67720082  0.72829909  0.82350109  0.00000000
C        C    0.57819898  0.64499823  0.67559823  0.00000000
C        C    0.58140094  0.66650126  0.70170126  0.00000000
C        C    0.72080032  0.66280041  0.66179912  0.00000000
H        H    0.64113672  0.63466682  0.87045282  0.00000000
H        H    0.53387877  0.58266112  0.78456912  0.00000000
H        H    0.79103333  0.93737188  0.06130788  0.00000000
H        H    0.77342678  0.54114006  0.89674806  0.00000000
H        H    0.74947869  0.55440709  0.94284709  0.00000000
H        H    0.61183744  0.72736074  0.90882074  0.00000000
H        H    0.60170694  0.69162127  0.71176327  0.00000000
Cr       Cr   0.95480056  0.73560129  0.12599929  0.00000000
Cr       Cr   0.76059868  0.48389802  0.95670002  0.00000000
O        O    0.86580128  0.82229973  0.13089973  0.00000000
O        O    0.82880128  0.84470077  0.11409877  0.00000000
O        O    0.74700070  0.63330057  0.93669857  0.00000000
O        O    0.70020085  0.57720012  0.82040012  0.00000000
O        O    0.73079873  0.58969813  0.90889813  0.00000000
O        O    0.89820255  0.75780164  0.10500164  0.00000000
O        O    0.82180258  0.67040129  0.04760129  0.00000000
O        O    0.95600056  0.77380013  0.12900013  0.00000000
O        O    0.93160114  0.70019859  0.25560059  0.00000000
O        O    0.95060059  0.70170035  0.10930035  0.00000000
O        O    0.84780055  0.64910106  0.07969906  0.00000000
O        O    0.81680071  0.46039796  0.96299996  0.00000000
O        O    0.55479896  0.51749812  0.67789812  0.00000000
O        O    0.76240271  0.45450098  0.93470098  0.00000000
O        O    0.57640090  0.50810111  0.72669911  0.00000000
O        O    0.76320066  0.52000006  0.97000006  0.00000000
O        O    0.79700060  0.53690006  0.02330006  0.00000000
C        C    0.65000291  0.55780112  0.75560112  0.00000000
C        C    0.62320095  0.54690012  0.71810012  0.00000000
C        C    0.58300094  0.52130111  0.70589911  0.00000000
C        C    0.91839932  0.81529769  0.13529969  0.00000000
C        C    0.94500133  0.81170067  0.13849867  0.00000000
C        C    0.93239855  0.78009935  0.12489935  0.00000000
C        C    0.79620260  0.61760114  0.02380114  0.00000000
C        C    0.78980259  0.58750052  0.02530052  0.00000000
C        C    0.77220063  0.56390110  0.99510110  0.00000000
C        C    0.75960066  0.57109911  0.96530111  0.00000000
C        C    0.76020266  0.59980184  0.96479984  0.00000000
C        C    0.77240063  0.61919995  0.99379995  0.00000000
C        C    0.74600070  0.60800115  0.93540115  0.00000000
C        C    0.77840063  0.53940107  0.99600107  0.00000000
C        C    0.82280058  0.64629996  0.05109996  0.00000000
C        C    0.92179863  0.59739806  0.06679806  0.00000000
C        C    0.91860060  0.62030109  0.08510109  0.00000000
C        C    0.77920272  0.44100096  0.94200096  0.00000000
H        H    0.85886670  0.72931681  0.99353281  0.00000000
H        H    0.96612269  0.75069208  0.04878208  0.00000000
H        H    0.72657295  0.62332014  0.76771414  0.00000000
H        H    0.75052091  0.69336820  0.80492820  0.00000000
H        H    0.88816733  0.79698469  0.11552669  0.00000000
H        H    0.89829457  0.61005809  0.08991409  0.00000000
Cr       Cr   0.40680092  0.67119885  0.12599885  0.00000000
Cr       Cr   0.18000301  0.69610098  0.95670298  0.00000000
O        O    0.58740306  0.76510084  0.13090084  0.00000000
O        O    0.62999912  0.78529883  0.11409683  0.00000000
O        O    0.32300116  0.68969888  0.93669888  0.00000000
O        O    0.19739925  0.62019887  0.82039887  0.00000000
O        O    0.26780116  0.67809990  0.90889990  0.00000000
O        O    0.46459900  0.70679885  0.10499885  0.00000000
O        O    0.39620104  0.72579990  0.04759990  0.00000000
O        O    0.44680095  0.67300083  0.12899883  0.00000000
O        O    0.52420081  0.82400096  0.25560096  0.00000000
O        O    0.36040291  0.65870086  0.10930086  0.00000000
O        O    0.38100098  0.73189792  0.07969992  0.00000000
O        O    0.10660094  0.64620097  0.96300097  0.00000000
O        O    0.14060143  0.62309987  0.67789987  0.00000000
O        O    0.12680101  0.67229998  0.93469998  0.00000000
O        O    0.15840136  0.65029990  0.72669790  0.00000000
O        O    0.22680303  0.70680196  0.96999996  0.00000000
O        O    0.26319897  0.72629997  0.02329797  0.00000000
C        C    0.16339932  0.60559886  0.75559886  0.00000000
C        C    0.14180136  0.59490085  0.71809885  0.00000000
C        C    0.14420339  0.62290088  0.70589888  0.00000000
C        C    0.53220301  0.71690182  0.13530182  0.00000000
C        C    0.50520098  0.69349882  0.13849882  0.00000000
C        C    0.47260098  0.69249883  0.12490083  0.00000000
C        C    0.34520104  0.72759993  0.02379993  0.00000000
C        C    0.32300102  0.73549995  0.02529995  0.00000000
C        C    0.28680104  0.72289995  0.99509995  0.00000000
C        C    0.27680108  0.70570093  0.96530093  0.00000000
C        C    0.30440110  0.70459891  0.96479891  0.00000000
C        C    0.34060108  0.72139992  0.99379992  0.00000000
C        C    0.29740114  0.68939890  0.93540090  0.00000000
C        C    0.25700101  0.71759996  0.99599996  0.00000000
C        C    0.37460102  0.72829991  0.05109991  0.00000000
C        C    0.24240089  0.64499891  0.06680091  0.00000000
C        C    0.28680089  0.66649991  0.08509991  0.00000000
C        C    0.10380298  0.66280099  0.94200099  0.00000000
H        H    0.36398510  0.63466781  0.99353181  0.00000000
H        H    0.33335299  0.58265979  0.04878179  0.00000000
H        H    0.70764913  0.93737094  0.14633894  0.00000000
H        H    0.16446530  0.54114180  0.76771580  0.00000000
H        H    0.24777731  0.55440677  0.80492877  0.00000000
H        H    0.52434503  0.72736084  0.11552484  0.00000000
H        H    0.30167890  0.69161993  0.08991393  0.00000000
Cr       Cr   0.40680148  0.73559985  0.78079985  0.00000000
Cr       Cr   0.18000339  0.48389972  0.72330172  0.00000000
O        O    0.58740334  0.82230086  0.95650086  0.00000000
O        O    0.62999928  0.84469887  0.01589887  0.00000000
O        O    0.32300124  0.63329982  0.88629982  0.00000000
O        O    0.19739915  0.57719783  0.87699783  0.00000000
O        O    0.26780124  0.58969880  0.85890080  0.00000000
O        O    0.46459940  0.75779885  0.85959685  0.00000000
O        O    0.39620136  0.67040180  0.84859980  0.00000000
O        O    0.44680145  0.77379987  0.81779987  0.00000000
O        O    0.52420079  0.70020014  0.76860014  0.00000000
O        O    0.36040349  0.70170084  0.75110084  0.00000000
O        O    0.38100142  0.64909978  0.80129978  0.00000000
O        O    0.10660146  0.46040042  0.64360042  0.00000000
O        O    0.14060097  0.51749783  0.96269983  0.00000000
O        O    0.12680139  0.45450072  0.69209872  0.00000000
O        O    0.15840104  0.50809980  0.93169980  0.00000000
O        O    0.22680337  0.52000074  0.75680074  0.00000000
O        O    0.26319943  0.53689873  0.73989873  0.00000000
F        F    0.39660070  0.76489992  0.76209904  0.00000000
F        F    0.16900133  0.46630072  0.75130072  0.00000000
C        C    0.16339908  0.55779984  0.90779784  0.00000000
C        C    0.14180104  0.54689885  0.92369885  0.00000000
C        C    0.14420301  0.52130082  0.93830082  0.00000000
C        C    0.53220339  0.81530188  0.89690188  0.00000000
C        C    0.50520142  0.81169888  0.86670088  0.00000000
C        C    0.47260142  0.78009887  0.84770087  0.00000000
C        C    0.34520136  0.61760077  0.82139877  0.00000000
C        C    0.32300138  0.58750075  0.79769875  0.00000000
C        C    0.28680136  0.56389975  0.79169975  0.00000000
C        C    0.27680132  0.57110077  0.81150077  0.00000000
C        C    0.30440130  0.59980079  0.83959879  0.00000000
C        C    0.34060132  0.61919878  0.84679878  0.00000000
C        C    0.29740126  0.60799980  0.86199980  0.00000000
C        C    0.25700139  0.53939974  0.76099974  0.00000000
C        C    0.37460138  0.64630079  0.82350079  0.00000000
C        C    0.24240151  0.59739879  0.67560079  0.00000000
C        C    0.28680151  0.62029979  0.70169979  0.00000000
C        C    0.10380042  0.44100056  0.66179856  0.00000000
H        H    0.36398530  0.72931789  0.87045189  0.00000000
H        H    0.33335341  0.75069091  0.78456891  0.00000000
H        H    0.70764927  0.77027576  0.06130776  0.00000000
H        H    0.16446510  0.62332190  0.89674990  0.00000000
H        H    0.24777709  0.69336793  0.94284793  0.00000000
H        H    0.52434537  0.79698386  0.90881986  0.00000000
H        H    0.30167950  0.61005677  0.71176277  0.00000000
Cr       Cr   0.09320105  0.21919892  0.26439892  0.00000000
Cr       Cr   0.32000103  0.27669999  0.51610199  0.00000000
O        O    0.91260125  0.04349993  0.17769993  0.00000000
O        O    0.87000125  0.98409889  0.15529889  0.00000000
O        O    0.17700235  0.11369948  0.36669948  0.00000000
O        O    0.30260117  0.12299983  0.42279983  0.00000000
O        O    0.23220313  0.14109988  0.41030188  0.00000000
O        O    0.03540044  0.14040057  0.24219857  0.00000000
O        O    0.10380096  0.15140086  0.32959886  0.00000000
O        O    0.05320148  0.18220010  0.22620010  0.00000000
O        O    0.97579910  0.23140011  0.29980011  0.00000000
O        O    0.13960083  0.24889982  0.29829982  0.00000000
O        O    0.11900133  0.19869910  0.35089910  0.00000000
O        O    0.39340305  0.35640203  0.53960203  0.00000000
O        O    0.35940312  0.03729972  0.48250172  0.00000000
O        O    0.37320103  0.30790099  0.54549899  0.00000000
O        O    0.34160109  0.06829876  0.49189876  0.00000000
O        O    0.27320105  0.24319998  0.47999998  0.00000000
O        O    0.23680105  0.26010001  0.46310001  0.00000000
F        F    0.10340051  0.23790006  0.23509918  0.00000000
C        C    0.33660116  0.09220078  0.44219878  0.00000000
C        C    0.35820116  0.07629975  0.45309975  0.00000000
C        C    0.35580112  0.06169874  0.47869874  0.00000000
C        C    0.96780128  0.10310096  0.18470096  0.00000000
C        C    0.99479929  0.13329697  0.18829897  0.00000000
C        C    0.02740107  0.15229888  0.21990088  0.00000000
C        C    0.15480111  0.17860096  0.38239896  0.00000000
C        C    0.17700228  0.20230158  0.41249958  0.00000000
C        C    0.21319907  0.20829897  0.43609897  0.00000000
C        C    0.22320109  0.18850094  0.42890094  0.00000000
C        C    0.19560172  0.16040022  0.40019822  0.00000000
C        C    0.15940152  0.15320013  0.38080013  0.00000000
C        C    0.20259913  0.13799889  0.39199889  0.00000000
C        C    0.24299906  0.23899899  0.46059899  0.00000000
C        C    0.12540153  0.17650017  0.35370017  0.00000000
C        C    0.25760316  0.32440005  0.40260205  0.00000000
C        C    0.21319916  0.29829905  0.37969905  0.00000000
C        C    0.39620102  0.33820101  0.55899901  0.00000000
H        H    0.13601808  0.12954930  0.27068330  0.00000000
H        H    0.16664953  0.21543007  0.24930807  0.00000000
H        H    0.33553927  0.10325178  0.37667978  0.00000000
H        H    0.25222531  0.05715177  0.30663177  0.00000000
H        H    0.97565526  0.09117995  0.20301595  0.00000000
H        H    0.19832313  0.28823605  0.38994205  0.00000000
Cr       Cr   0.09320095  0.87399958  0.32879958  0.00000000
Cr       Cr   0.32000137  0.04329871  0.30390071  0.00000000
O        O    0.91260115  0.86909977  0.23489977  0.00000000
O        O    0.87000115  0.88590081  0.21469881  0.00000000
O        O    0.17700245  0.06330042  0.31030042  0.00000000
O        O    0.30260123  0.17959887  0.37979887  0.00000000
O        O    0.23220327  0.09110082  0.32190082  0.00000000
O        O    0.03540036  0.89499833  0.29319833  0.00000000
O        O    0.10380104  0.95240064  0.27420064  0.00000000
O        O    0.05320132  0.87100080  0.32699880  0.00000000
O        O    0.97580050  0.74439999  0.17599999  0.00000000
O        O    0.13960077  0.89069948  0.34129948  0.00000000
O        O    0.11900147  0.92029880  0.26810080  0.00000000
O        O    0.39340055  0.03699996  0.35379996  0.00000000
O        O    0.35940328  0.32209998  0.37689998  0.00000000
O        O    0.37320137  0.06529971  0.32769971  0.00000000
O        O    0.34160131  0.27330094  0.34969894  0.00000000
O        O    0.27320135  0.03000072  0.29319872  0.00000000
O        O    0.23680135  0.97670069  0.27369869  0.00000000
C        C    0.33660124  0.24439992  0.39439992  0.00000000
C        C    0.35820124  0.28189995  0.40509795  0.00000000
C        C    0.35580128  0.29410096  0.37709896  0.00000000
C        C    0.96780112  0.86470074  0.28310074  0.00000000
C        C    0.99479911  0.86149873  0.30649873  0.00000000
C        C    0.02740093  0.87509862  0.30750062  0.00000000
C        C    0.15480129  0.97619974  0.27239974  0.00000000
C        C    0.17700252  0.97470032  0.26450032  0.00000000
C        C    0.21319933  0.00489873  0.27709873  0.00000000
C        C    0.22320131  0.03470076  0.29430076  0.00000000
C        C    0.19560188  0.03520008  0.29540008  0.00000000
C        C    0.15940168  0.00619897  0.27859897  0.00000000
C        C    0.20259927  0.06459781  0.31059981  0.00000000
C        C    0.24299934  0.00399871  0.28239871  0.00000000
C        C    0.12540167  0.94890093  0.27170093  0.00000000
C        C    0.25760324  0.93319965  0.35500165  0.00000000
C        C    0.21319924  0.91489865  0.33349865  0.00000000
C        C    0.39620058  0.05799964  0.33719964  0.00000000
H        H    0.13601792  0.00646920  0.36533320  0.00000000
H        H    0.16664927  0.95121683  0.41733883  0.00000000
H        H    0.33553913  0.23228592  0.45885992  0.00000000
H        H    0.39037720  0.32480098  0.44482298  0.00000000
H        H    0.25222509  0.19507093  0.44559293  0.00000000
H        H    0.97565514  0.88447475  0.27263875  0.00000000
H        H    0.19832327  0.91008465  0.30837865  0.00000000
Cr       Cr   0.54520079  0.87399940  0.78079960  0.00000000
Cr       Cr   0.73939903  0.04329854  0.72329854  0.00000000
O        O    0.63419938  0.86909888  0.95649888  0.00000000
O        O    0.67120131  0.88589989  0.01589989  0.00000000
O        O    0.75300078  0.06330019  0.88629899  0.00000000
O        O    0.79980084  0.17959868  0.87699868  0.00000000
O        O    0.76920084  0.09110060  0.85889860  0.00000000
O        O    0.60180071  0.89499811  0.85959891  0.00000000
O        O    0.67820078  0.95240042  0.84860062  0.00000000
O        O    0.54400273  0.87100061  0.81780041  0.00000000
O        O    0.56840082  0.74440016  0.76860016  0.00000000
O        O    0.54940084  0.89069931  0.75109971  0.00000000
O        O    0.65219884  0.92029859  0.80129839  0.00000000
O        O    0.68319832  0.03699985  0.64359785  0.00000000
O        O    0.94520082  0.32209975  0.96269775  0.00000000
O        O    0.73760108  0.06529956  0.69209956  0.00000000
O        O    0.92360285  0.27330071  0.93170071  0.00000000
O        O    0.73680298  0.03000054  0.75680054  0.00000000
O        O    0.70300298  0.97670050  0.73990050  0.00000000
F        F    0.78500103  0.08230056  0.75130056  0.00000000
C        C    0.85000083  0.24439972  0.90779972  0.00000000
C        C    0.87680282  0.28189974  0.92369974  0.00000000
C        C    0.91700283  0.29410073  0.93830073  0.00000000
C        C    0.58160143  0.86470090  0.89690090  0.00000000
C        C    0.55500146  0.86149990  0.86669990  0.00000000
C        C    0.56759870  0.87509840  0.84769860  0.00000000
C        C    0.70380085  0.97619952  0.82139952  0.00000000
C        C    0.71020089  0.97470011  0.79769891  0.00000000
C        C    0.72780092  0.00489853  0.79170053  0.00000000
C        C    0.74040089  0.03470055  0.81150055  0.00000000
C        C    0.73980085  0.03519986  0.83959926  0.00000000
C        C    0.72760083  0.00619874  0.84679834  0.00000000
C        C    0.75399882  0.06459758  0.86199958  0.00000000
C        C    0.72160096  0.00399852  0.76100052  0.00000000
C        C    0.67720082  0.94890071  0.82350031  0.00000000
C        C    0.57819898  0.93319952  0.67559752  0.00000000
C        C    0.58140094  0.91489851  0.70170051  0.00000000
C        C    0.72080032  0.05799951  0.66179951  0.00000000
H        H    0.64113672  0.00646900  0.87045220  0.00000000
H        H    0.53387877  0.95121669  0.78456849  0.00000000
H        H    0.79103333  0.85365979  0.06130779  0.00000000
H        H    0.77342678  0.23228575  0.89674775  0.00000000
H        H    0.87997881  0.32480078  0.93442478  0.00000000
H        H    0.74947869  0.19507073  0.94284673  0.00000000
H        H    0.61183744  0.88447490  0.90882090  0.00000000
H        H    0.60170694  0.91008449  0.71176249  0.00000000
Cr       Cr   0.95480056  0.21919857  0.12599877  0.00000000
Cr       Cr   0.76059868  0.27669981  0.95669981  0.00000000
O        O    0.86580128  0.04349995  0.13089995  0.00000000
O        O    0.82880128  0.98409891  0.11409891  0.00000000
O        O    0.74700070  0.11369925  0.93669805  0.00000000
O        O    0.70020085  0.12299967  0.82039967  0.00000000
O        O    0.73079873  0.14109968  0.90889768  0.00000000
O        O    0.89820255  0.14040022  0.10500102  0.00000000
O        O    0.82180258  0.15140057  0.04760077  0.00000000
O        O    0.95600056  0.18219973  0.12899953  0.00000000
O        O    0.93160114  0.23140112  0.25560112  0.00000000
O        O    0.95060059  0.24889950  0.10929990  0.00000000
O        O    0.84780055  0.19869881  0.07969861  0.00000000
O        O    0.81680071  0.35640186  0.96299986  0.00000000
O        O    0.55479896  0.03729964  0.67789764  0.00000000
O        O    0.76240271  0.30790084  0.93470084  0.00000000
O        O    0.57640090  0.06829867  0.72669867  0.00000000
O        O    0.76320066  0.24319978  0.96999978  0.00000000
O        O    0.79700060  0.26009979  0.02329979  0.00000000
F        F    0.71500070  0.24869980  0.91769980  0.00000000
C        C    0.65000291  0.09220065  0.75560065  0.00000000
C        C    0.62320095  0.07629965  0.71809965  0.00000000
C        C    0.58300094  0.06169865  0.70589865  0.00000000
C        C    0.91839932  0.10309998  0.13529998  0.00000000
C        C    0.94500133  0.13329899  0.13849899  0.00000000
C        C    0.93239855  0.15229852  0.12489872  0.00000000
C        C    0.79620260  0.17860071  0.02380071  0.00000000
C        C    0.78980259  0.20230133  0.02530013  0.00000000
C        C    0.77220063  0.20829874  0.99510074  0.00000000
C        C    0.75960066  0.18850073  0.96530073  0.00000000
C        C    0.76020266  0.16040000  0.96479940  0.00000000
C        C    0.77240063  0.15319989  0.99379949  0.00000000
C        C    0.74600070  0.13799868  0.93540068  0.00000000
C        C    0.77840063  0.23899877  0.99600077  0.00000000
C        C    0.82280058  0.17649989  0.05109949  0.00000000
C        C    0.92179863  0.32439978  0.06679778  0.00000000
C        C    0.91860060  0.29829876  0.08510076  0.00000000
C        C    0.77920272  0.33820086  0.94200086  0.00000000
H        H    0.85886670  0.12954901  0.99353221  0.00000000
H        H    0.96612269  0.21542975  0.04878155  0.00000000
H        H    0.72657295  0.10325162  0.76771362  0.00000000
H        H    0.75052091  0.05715157  0.80492757  0.00000000
H        H    0.88816733  0.09118098  0.11552698  0.00000000
H        H    0.89829457  0.28823577  0.08991377  0.00000000
Cr       Cr   0.95480104  0.73559963  0.32879963  0.00000000
Cr       Cr   0.76060092  0.48389929  0.30389969  0.00000000
O        O    0.86580112  0.82229975  0.23489975  0.00000000
O        O    0.82880112  0.84469979  0.21469979  0.00000000
O        O    0.74700090  0.63329965  0.31029965  0.00000000
O        O    0.70020075  0.57719873  0.37979853  0.00000000
O        O    0.73080087  0.58969962  0.32189962  0.00000000
O        O    0.89820105  0.75779868  0.29319868  0.00000000
O        O    0.82180102  0.67040063  0.27420063  0.00000000
O        O    0.95600104  0.77379967  0.32699967  0.00000000
O        O    0.93160046  0.70019998  0.17599998  0.00000000
O        O    0.95060101  0.70169960  0.34129960  0.00000000
O        O    0.84780105  0.64909959  0.26809959  0.00000000
O        O    0.81680009  0.46040013  0.35379933  0.00000000
O        O    0.55480064  0.51749906  0.37689826  0.00000000
O        O    0.76240089  0.45449916  0.32769976  0.00000000
O        O    0.57640070  0.50809923  0.34970003  0.00000000
O        O    0.76320094  0.51999952  0.29319952  0.00000000
O        O    0.79700100  0.53689951  0.27369951  0.00000000
C        C    0.65000069  0.55779975  0.39439955  0.00000000
C        C    0.62320065  0.54689845  0.40509885  0.00000000
C        C    0.58300266  0.52130065  0.37710065  0.00000000
C        C    0.91839908  0.81529972  0.28309972  0.00000000
C        C    0.94500107  0.81169971  0.30649971  0.00000000
C        C    0.93240105  0.78009968  0.30749968  0.00000000
C        C    0.79620100  0.61759959  0.27239959  0.00000000
C        C    0.78980101  0.58749957  0.26449957  0.00000000
C        C    0.77219897  0.56389856  0.27709856  0.00000000
C        C    0.75960094  0.57109957  0.29430157  0.00000000
C        C    0.76020094  0.59979860  0.29540060  0.00000000
C        C    0.77240097  0.61919761  0.27859961  0.00000000
C        C    0.74600090  0.60799962  0.31059962  0.00000000
C        C    0.77840297  0.53940053  0.28240053  0.00000000
C        C    0.82280302  0.64630061  0.27170261  0.00000000
C        C    0.92180097  0.59739952  0.35499952  0.00000000
C        C    0.91859900  0.62029854  0.33349854  0.00000000
C        C    0.77920208  0.44100029  0.33720049  0.00000000
H        H    0.85886890  0.72931769  0.36533569  0.00000000
H        H    0.96612091  0.75068965  0.41733765  0.00000000
H        H    0.72657265  0.62332058  0.45885878  0.00000000
H        H    0.62002258  0.55444657  0.44482277  0.00000000
H        H    0.75052269  0.69336773  0.44559373  0.00000000
H        H    0.88816707  0.79698572  0.27263972  0.00000000
H        H    0.89829703  0.61005853  0.30837853  0.00000000
Cr       Cr   0.54519881  0.67119780  0.26439780  0.00000000
Cr       Cr   0.73940057  0.69610056  0.51610096  0.00000000
O        O    0.63419902  0.76509882  0.17769882  0.00000000
O        O    0.67120109  0.78529881  0.15529881  0.00000000
O        O    0.75299882  0.68969771  0.36669771  0.00000000
O        O    0.79979876  0.62019872  0.42279852  0.00000000
O        O    0.76920076  0.67809970  0.41029970  0.00000000
O        O    0.60180089  0.70679979  0.24219979  0.00000000
O        O    0.67820082  0.72579978  0.32959978  0.00000000
O        O    0.54400087  0.67299979  0.22619979  0.00000000
O        O    0.56840278  0.82400194  0.29980194  0.00000000
O        O    0.54939876  0.65869879  0.29829879  0.00000000
O        O    0.65220076  0.73189881  0.35089881  0.00000000
O        O    0.68319848  0.64620014  0.53959934  0.00000000
O        O    0.94520078  0.62309995  0.48249915  0.00000000
O        O    0.73760052  0.67229944  0.54550004  0.00000000
O        O    0.92360075  0.65029819  0.49189899  0.00000000
O        O    0.73680062  0.70679976  0.47999976  0.00000000
O        O    0.70300062  0.72629980  0.46309980  0.00000000
C        C    0.85000077  0.60559968  0.44219948  0.00000000
C        C    0.87680078  0.59489936  0.45309976  0.00000000
C        C    0.91700077  0.62289857  0.47869857  0.00000000
C        C    0.58160097  0.71690080  0.18470080  0.00000000
C        C    0.55500094  0.69349880  0.18829880  0.00000000
C        C    0.56760090  0.69249980  0.21989980  0.00000000
C        C    0.70380075  0.72759978  0.38239978  0.00000000
C        C    0.71020071  0.73549979  0.41249979  0.00000000
C        C    0.72780068  0.72289977  0.43609977  0.00000000
C        C    0.74039871  0.70569875  0.42890075  0.00000000
C        C    0.73980075  0.70459774  0.40019974  0.00000000
C        C    0.72759877  0.72139776  0.38079976  0.00000000
C        C    0.75400078  0.68939972  0.39199972  0.00000000
C        C    0.72160064  0.71759978  0.46059978  0.00000000
C        C    0.67720078  0.72829879  0.35370079  0.00000000
C        C    0.57820062  0.64499978  0.40259978  0.00000000
C        C    0.58139866  0.66649879  0.37969879  0.00000000
C        C    0.72080048  0.66279964  0.55899984  0.00000000
H        H    0.64113488  0.63466570  0.27068370  0.00000000
H        H    0.53387883  0.58265971  0.24930771  0.00000000
H        H    0.79103307  0.93736991  0.22972391  0.00000000
H        H    0.77342882  0.54114145  0.37667965  0.00000000
H        H    0.87998079  0.55517742  0.44555362  0.00000000
H        H    0.74948091  0.55440657  0.30663257  0.00000000
H        H    0.61183696  0.72736180  0.20301580  0.00000000
H        H    0.60170466  0.69161981  0.38993981  0.00000000
Cr       Cr   0.09320095  0.21919993  0.32879993  0.00000000
Cr       Cr   0.32000137  0.27670095  0.30390095  0.00000000
O        O    0.91260115  0.04349994  0.23489994  0.00000000
O        O    0.87000115  0.98409891  0.21469891  0.00000000
O        O    0.17700245  0.11370047  0.31030047  0.00000000
O        O    0.30260123  0.12300082  0.37979882  0.00000000
O        O    0.23220327  0.14110087  0.32190087  0.00000000
O        O    0.03540036  0.14040058  0.29319858  0.00000000
O        O    0.10380104  0.15139884  0.27420084  0.00000000
O        O    0.05320132  0.18219912  0.32699912  0.00000000
O        O    0.97580050  0.23139988  0.17599948  0.00000000
O        O    0.13960077  0.24889983  0.34129983  0.00000000
O        O    0.11900147  0.19870108  0.26810108  0.00000000
O        O    0.39340055  0.35639990  0.35379928  0.00000000
O        O    0.35940328  0.03730170  0.37689970  0.00000000
O        O    0.37320137  0.30789995  0.32769995  0.00000000
O        O    0.34160131  0.06829873  0.34969873  0.00000000
O        O    0.27320135  0.24319894  0.29319894  0.00000000
O        O    0.23680135  0.26009897  0.27369897  0.00000000
C        C    0.33660124  0.09219977  0.39439977  0.00000000
C        C    0.35820124  0.07629974  0.40509774  0.00000000
C        C    0.35580128  0.06169872  0.37709872  0.00000000
C        C    0.96780112  0.10309898  0.28310098  0.00000000
C        C    0.99479911  0.13329900  0.30649900  0.00000000
C        C    0.02740093  0.15230090  0.30750090  0.00000000
C        C    0.15480129  0.17859994  0.27239994  0.00000000
C        C    0.17700252  0.20230055  0.26450055  0.00000000
C        C    0.21319933  0.20829894  0.27709894  0.00000000
C        C    0.22320131  0.18849891  0.29430091  0.00000000
C        C    0.19560188  0.16040020  0.29540020  0.00000000
C        C    0.15940168  0.15320111  0.27859911  0.00000000
C        C    0.20259927  0.13799988  0.31059988  0.00000000
C        C    0.24299934  0.23899895  0.28239895  0.00000000
C        C    0.12540167  0.17649916  0.27170116  0.00000000
C        C    0.25760324  0.32440204  0.35500204  0.00000000
C        C    0.21319924  0.29829904  0.33349904  0.00000000
C        C    0.39620058  0.33820021  0.33719892  0.00000000
H        H    0.13601792  0.12954732  0.36533332  0.00000000
H        H    0.16664927  0.21543110  0.41733910  0.00000000
H        H    0.33553913  0.10325179  0.45885979  0.00000000
H        H    0.39037720  0.06557472  0.44482272  0.00000000
H        H    0.25222509  0.05715279  0.44559279  0.00000000
H        H    0.97565514  0.09117896  0.27263896  0.00000000
H        H    0.19832327  0.28823703  0.30837903  0.00000000
Cr       Cr   0.09320105  0.87400057  0.26439857  0.00000000
Cr       Cr   0.32000103  0.04329975  0.51610175  0.00000000
O        O    0.91260125  0.86909976  0.17769976  0.00000000
O        O    0.87000125  0.88590079  0.15529879  0.00000000
O        O    0.17700235  0.06330143  0.36669943  0.00000000
O        O    0.30260117  0.17959988  0.42279988  0.00000000
O        O    0.23220313  0.09110183  0.41030183  0.00000000
O        O    0.03540044  0.89499832  0.24219832  0.00000000
O        O    0.10380096  0.95239866  0.32959866  0.00000000
O        O    0.05320148  0.87099978  0.22619978  0.00000000
O        O    0.97579910  0.74439762  0.29979962  0.00000000
O        O    0.13960083  0.89069947  0.29829947  0.00000000
O        O    0.11900133  0.92030082  0.35089882  0.00000000
O        O    0.39340305  0.03699971  0.53960171  0.00000000
O        O    0.35940312  0.32210200  0.48250200  0.00000000
O        O    0.37320103  0.06529875  0.54549875  0.00000000
O        O    0.34160109  0.27330097  0.49189897  0.00000000
O        O    0.27320105  0.02999976  0.47999976  0.00000000
O        O    0.23680105  0.97669973  0.46309973  0.00000000
F        F    0.10340051  0.86549981  0.23509981  0.00000000
F        F    0.33100101  0.08229979  0.53369979  0.00000000
C        C    0.33660116  0.24439893  0.44219893  0.00000000
C        C    0.35820116  0.28189996  0.45309996  0.00000000
C        C    0.35580112  0.29410098  0.47869898  0.00000000
C        C    0.96780128  0.86469872  0.18470072  0.00000000
C        C    0.99479929  0.86150070  0.18829870  0.00000000
C        C    0.02740107  0.87510060  0.21990060  0.00000000
C        C    0.15480111  0.97619876  0.38239876  0.00000000
C        C    0.17700228  0.97469935  0.41249935  0.00000000
C        C    0.21319907  0.00489876  0.43609876  0.00000000
C        C    0.22320109  0.03469879  0.42890079  0.00000000
C        C    0.19560172  0.03520010  0.40019810  0.00000000
C        C    0.15940152  0.00619999  0.38079999  0.00000000
C        C    0.20259913  0.06459882  0.39199882  0.00000000
C        C    0.24299906  0.00399875  0.46059875  0.00000000
C        C    0.12540153  0.94889994  0.35369994  0.00000000
C        C    0.25760316  0.93320166  0.40260166  0.00000000
C        C    0.21319916  0.91489866  0.37969866  0.00000000
C        C    0.39620102  0.05799873  0.55899873  0.00000000
H        H    0.13601808  0.00646718  0.27068318  0.00000000
H        H    0.16664953  0.95121780  0.24930780  0.00000000
H        H    0.33553927  0.23228591  0.37667991  0.00000000
H        H    0.25222531  0.19507191  0.30663191  0.00000000
H        H    0.97565526  0.88447374  0.20301574  0.00000000
H        H    0.19832313  0.91008567  0.38994167  0.00000000
Cr       Cr   0.40680148  0.67119978  0.78079978  0.00000000
Cr       Cr   0.18000339  0.69610193  0.72330193  0.00000000
O        O    0.58740334  0.76510080  0.95650080  0.00000000
O        O    0.62999928  0.78529881  0.01589881  0.00000000
O        O    0.32300124  0.68969987  0.88629987  0.00000000
O        O    0.19739915  0.62019988  0.87699788  0.00000000
O        O    0.26780124  0.67810089  0.85890089  0.00000000
O        O    0.46459940  0.70679880  0.85959680  0.00000000
O        O    0.39620136  0.72579786  0.84859986  0.00000000
O        O    0.44680145  0.67299977  0.81779977  0.00000000
O        O    0.52420079  0.82399966  0.76859926  0.00000000
O        O    0.36040349  0.65870079  0.75110079  0.00000000
O        O    0.38100142  0.73189986  0.80129986  0.00000000
O        O    0.10660146  0.64620022  0.64359960  0.00000000
O        O    0.14060097  0.62310193  0.96269993  0.00000000
O        O    0.12680139  0.67229893  0.69209893  0.00000000
O        O    0.15840104  0.65029994  0.93169994  0.00000000
O        O    0.22680337  0.70680092  0.75680092  0.00000000
O        O    0.26319943  0.72629892  0.73989892  0.00000000
C        C    0.16339908  0.60559789  0.90779789  0.00000000
C        C    0.14180104  0.59490089  0.92369889  0.00000000
C        C    0.14420301  0.62290092  0.93830092  0.00000000
C        C    0.53220339  0.71689978  0.89690178  0.00000000
C        C    0.50520142  0.69350076  0.86670076  0.00000000
C        C    0.47260142  0.69250078  0.84770078  0.00000000
C        C    0.34520136  0.72759888  0.82139888  0.00000000
C        C    0.32300138  0.73549890  0.79769890  0.00000000
C        C    0.28680136  0.72289991  0.79169991  0.00000000
C        C    0.27680132  0.70569890  0.81150090  0.00000000
C        C    0.30440130  0.70459889  0.83959889  0.00000000
C        C    0.34060132  0.72140089  0.84679889  0.00000000
C        C    0.29740126  0.68939988  0.86199988  0.00000000
C        C    0.25700139  0.71759992  0.76099992  0.00000000
C        C    0.37460138  0.72829887  0.82350087  0.00000000
C        C    0.24240151  0.64500083  0.67560083  0.00000000
C        C    0.28680151  0.66649983  0.70169983  0.00000000
C        C    0.10380042  0.66279908  0.66179779  0.00000000
H        H    0.36398530  0.63466579  0.87045179  0.00000000
H        H    0.33335341  0.58266074  0.78456874  0.00000000
H        H    0.70764927  0.93737193  0.06130793  0.00000000
H        H    0.16446510  0.54114182  0.89674982  0.00000000
H        H    0.10962699  0.55517788  0.93442588  0.00000000
H        H    0.24777709  0.55440779  0.94284779  0.00000000
H        H    0.52434537  0.72735979  0.90881979  0.00000000
H        H    0.30167950  0.69162085  0.71176285  0.00000000
Cr       Cr   0.40680092  0.73560092  0.12599892  0.00000000
Cr       Cr   0.18000301  0.48390077  0.95670277  0.00000000
O        O    0.58740306  0.82230090  0.13090090  0.00000000
O        O    0.62999912  0.84469889  0.11409689  0.00000000
O        O    0.32300116  0.63330083  0.93669883  0.00000000
O        O    0.19739925  0.57719882  0.82039882  0.00000000
O        O    0.26780116  0.58969981  0.90889981  0.00000000
O        O    0.46459900  0.75779890  0.10499890  0.00000000
O        O    0.39620104  0.67039984  0.04759984  0.00000000
O        O    0.44680095  0.77379893  0.12899893  0.00000000
O        O    0.52420081  0.70019884  0.25560084  0.00000000
O        O    0.36040291  0.70170091  0.10930091  0.00000000
O        O    0.38100098  0.64910184  0.07969984  0.00000000
O        O    0.10660094  0.46039879  0.96300079  0.00000000
O        O    0.14060143  0.51749977  0.67789977  0.00000000
O        O    0.12680101  0.45449977  0.93469977  0.00000000
O        O    0.15840136  0.50809976  0.72669776  0.00000000
O        O    0.22680303  0.51999978  0.96999978  0.00000000
O        O    0.26319897  0.53689778  0.02329778  0.00000000
C        C    0.16339932  0.55779881  0.75559881  0.00000000
C        C    0.14180136  0.54689881  0.71809881  0.00000000
C        C    0.14420339  0.52130078  0.70589878  0.00000000
C        C    0.53220301  0.81529992  0.13530192  0.00000000
C        C    0.50520098  0.81170094  0.13849894  0.00000000
C        C    0.47260098  0.78010092  0.12490092  0.00000000
C        C    0.34520104  0.61759982  0.02379982  0.00000000
C        C    0.32300102  0.58749980  0.02529980  0.00000000
C        C    0.28680104  0.56389979  0.99509979  0.00000000
C        C    0.27680108  0.57109880  0.96530080  0.00000000
C        C    0.30440110  0.59980081  0.96479881  0.00000000
C        C    0.34060108  0.61919981  0.99379981  0.00000000
C        C    0.29740114  0.60800082  0.93540082  0.00000000
C        C    0.25700101  0.53939978  0.99599978  0.00000000
C        C    0.37460102  0.64629983  0.05109983  0.00000000
C        C    0.24240089  0.59740087  0.06680087  0.00000000
C        C    0.28680089  0.62029987  0.08509987  0.00000000
C        C    0.10380298  0.44100077  0.94200077  0.00000000
H        H    0.36398510  0.72931591  0.99353191  0.00000000
H        H    0.33335299  0.75069196  0.04878196  0.00000000
H        H    0.70764913  0.77027677  0.14633877  0.00000000
H        H    0.16446530  0.62332188  0.76771588  0.00000000
H        H    0.10962741  0.55444782  0.67519982  0.00000000
H        H    0.24777731  0.69336891  0.80492891  0.00000000
H        H    0.52434503  0.79698291  0.11552491  0.00000000
H        H    0.30167890  0.61005785  0.08991385  0.00000000
Cr       Cr   0.89040051  0.67120026  0.12600026  0.00000000
Cr       Cr   0.97280085  0.69609910  0.95670110  0.00000000
O        O    0.80860124  0.76509971  0.13089971  0.00000000
O        O    0.76940123  0.78530075  0.11409875  0.00000000
O        O    0.80340074  0.68969959  0.93669959  0.00000000
O        O    0.74320288  0.62020114  0.82040114  0.00000000
O        O    0.81920080  0.67809917  0.90889917  0.00000000
O        O    0.84720251  0.70680162  0.10500162  0.00000000
O        O    0.87719863  0.72579931  0.04759931  0.00000000
O        O    0.85520048  0.67300109  0.12899909  0.00000000
O        O    0.05540164  0.82399984  0.25559984  0.00000000
O        O    0.90760055  0.65870034  0.10930034  0.00000000
O        O    0.93060062  0.73189909  0.07970109  0.00000000
O        O    0.00260086  0.64619904  0.96299904  0.00000000
O        O    0.66040304  0.62310016  0.67790016  0.00000000
O        O    0.98020089  0.67230007  0.93470007  0.00000000
O        O    0.71860101  0.65030116  0.72669916  0.00000000
O        O    0.95000081  0.70680113  0.96999913  0.00000000
O        O    0.98640075  0.72630114  0.02329914  0.00000000
F        F    0.95139889  0.70269912  0.91769912  0.00000000
C        C    0.69780095  0.60560014  0.75560014  0.00000000
C        C    0.67120299  0.59490214  0.71810014  0.00000000
C        C    0.68460102  0.62290115  0.70589915  0.00000000
C        C    0.82000124  0.71689965  0.13529965  0.00000000
C        C    0.82680124  0.69349963  0.13849963  0.00000000
C        C    0.84480048  0.69249931  0.12490131  0.00000000
C        C    0.90620069  0.72760019  0.02380019  0.00000000
C        C    0.93780071  0.73549958  0.02529958  0.00000000
C        C    0.93120075  0.72290116  0.99510116  0.00000000
C        C    0.89419877  0.70569916  0.96529916  0.00000000
C        C    0.86500075  0.70459988  0.96479988  0.00000000
C        C    0.87460271  0.72140100  0.99380100  0.00000000
C        C    0.82740077  0.68940018  0.93540218  0.00000000
C        C    0.95660077  0.71760114  0.99600114  0.00000000
C        C    0.90479864  0.72829900  0.05109900  0.00000000
C        C    0.96940067  0.64499808  0.06680008  0.00000000
C        C    0.96480064  0.66650110  0.08510110  0.00000000
C        C    0.00100089  0.66280005  0.94200005  0.00000000
H        H    0.76421462  0.63466677  0.99353077  0.00000000
H        H    0.79809256  0.58266101  0.04878301  0.00000000
H        H    0.64439289  0.54114011  0.76771411  0.00000000
H        H    0.62075302  0.55517712  0.67519912  0.00000000
H        H    0.61156080  0.55440715  0.80492915  0.00000000
H        H    0.81854127  0.72736066  0.11552466  0.00000000
H        H    0.97985864  0.69162112  0.08991512  0.00000000
Cr       Cr   0.60960284  0.73560143  0.78080143  0.00000000
Cr       Cr   0.52719886  0.48389811  0.72330011  0.00000000
O        O    0.69139942  0.82229880  0.95649880  0.00000000
O        O    0.73060136  0.84469981  0.01589981  0.00000000
O        O    0.69660274  0.63330059  0.88630059  0.00000000
O        O    0.75680080  0.57720010  0.87700010  0.00000000
O        O    0.68080077  0.58969815  0.85890015  0.00000000
O        O    0.65280075  0.75780174  0.85959974  0.00000000
O        O    0.62280074  0.67040137  0.84859937  0.00000000
O        O    0.64480081  0.77380025  0.81780025  0.00000000
O        O    0.44460153  0.70019979  0.76859979  0.00000000
O        O    0.59240087  0.70170050  0.75110050  0.00000000
O        O    0.56940277  0.64910117  0.80130117  0.00000000
O        O    0.49739897  0.46039809  0.64359809  0.00000000
O        O    0.83960073  0.51749801  0.96270001  0.00000000
O        O    0.51980091  0.45450108  0.69209908  0.00000000
O        O    0.78140273  0.50810103  0.93170103  0.00000000
O        O    0.55000083  0.52000014  0.75680014  0.00000000
O        O    0.51360083  0.53690018  0.73990018  0.00000000
C        C    0.80220079  0.55780106  0.90779906  0.00000000
C        C    0.82880079  0.54690003  0.92370003  0.00000000
C        C    0.81540275  0.52130102  0.93830102  0.00000000
C        C    0.68000151  0.81529979  0.89689979  0.00000000
C        C    0.67320155  0.81169878  0.86670078  0.00000000
C        C    0.65520077  0.78009946  0.84770146  0.00000000
C        C    0.59380076  0.61760123  0.82139923  0.00000000
C        C    0.56220077  0.58750061  0.79769861  0.00000000
C        C    0.56880079  0.56390118  0.79170118  0.00000000
C        C    0.60579879  0.57109917  0.81149917  0.00000000
C        C    0.63500276  0.59980189  0.83959989  0.00000000
C        C    0.62540075  0.61920001  0.84680001  0.00000000
C        C    0.67260076  0.60800118  0.86200118  0.00000000
C        C    0.54340082  0.53940117  0.76100117  0.00000000
C        C    0.59520076  0.64630005  0.82350005  0.00000000
C        C    0.53060094  0.59739821  0.67560021  0.00000000
C        C    0.53520091  0.62030124  0.70170124  0.00000000
C        C    0.49900094  0.44100107  0.66179907  0.00000000
H        H    0.73578480  0.72931686  0.87045086  0.00000000
H        H    0.70191091  0.75069219  0.78457019  0.00000000
H        H    0.85560685  0.62332009  0.89674809  0.00000000
H        H    0.87924881  0.55444701  0.93442501  0.00000000
H        H    0.88844080  0.69336815  0.94284815  0.00000000
H        H    0.68146149  0.79698477  0.90882077  0.00000000
H        H    0.52014488  0.61005824  0.71176424  0.00000000
Cr       Cr   0.89040109  0.21920014  0.26440014  0.00000000
Cr       Cr   0.97280075  0.27669940  0.51610140  0.00000000
O        O    0.80860116  0.04349999  0.17769999  0.00000000
O        O    0.76940117  0.98409995  0.15529995  0.00000000
O        O    0.80340086  0.11370010  0.36670010  0.00000000
O        O    0.74320072  0.12300006  0.42280006  0.00000000
O        O    0.81920080  0.14109913  0.41030113  0.00000000
O        O    0.84720109  0.14040108  0.24219908  0.00000000
O        O    0.87720097  0.15140109  0.32959909  0.00000000
O        O    0.85520112  0.18220011  0.22620011  0.00000000
O        O    0.05540156  0.23140026  0.29980026  0.00000000
O        O    0.90760305  0.24890116  0.29830116  0.00000000
O        O    0.93060098  0.19870011  0.35090011  0.00000000
O        O    0.00260136  0.35640017  0.53960017  0.00000000
O        O    0.66040056  0.03729874  0.48250074  0.00000000
O        O    0.98020071  0.30790153  0.54549953  0.00000000
O        O    0.71860059  0.06830054  0.49190054  0.00000000
O        O    0.95000279  0.24320117  0.48000117  0.00000000
O        O    0.98639885  0.26009916  0.46309916  0.00000000
F        F    0.86960032  0.23790020  0.23509932  0.00000000
C        C    0.69779865  0.09220006  0.44219806  0.00000000
C        C    0.67120061  0.07630036  0.45310036  0.00000000
C        C    0.68460058  0.06170015  0.47870015  0.00000000
C        C    0.82000116  0.10310005  0.18470005  0.00000000
C        C    0.82680116  0.13329907  0.18830107  0.00000000
C        C    0.84480112  0.15229909  0.21990109  0.00000000
C        C    0.90620091  0.17860111  0.38239911  0.00000000
C        C    0.93780089  0.20230112  0.41249912  0.00000000
C        C    0.93119885  0.20829914  0.43609914  0.00000000
C        C    0.89420083  0.18850114  0.42890114  0.00000000
C        C    0.86500085  0.16040212  0.40020012  0.00000000
C        C    0.87460089  0.15320110  0.38080110  0.00000000
C        C    0.82739883  0.13799912  0.39199912  0.00000000
C        C    0.95659883  0.23899916  0.46059916  0.00000000
C        C    0.90480096  0.17650110  0.35370110  0.00000000
C        C    0.96939893  0.32439822  0.40260022  0.00000000
C        C    0.96480296  0.29830120  0.37970120  0.00000000
C        C    0.00100200  0.33820200  0.55900000  0.00000000
H        H    0.76421698  0.12955013  0.27068413  0.00000000
H        H    0.79809104  0.21543019  0.24930819  0.00000000
H        H    0.87606513  0.93869286  0.22972486  0.00000000
H        H    0.64439271  0.10325129  0.37667929  0.00000000
H        H    0.62075458  0.06557628  0.44555428  0.00000000
H        H    0.61155880  0.05715215  0.30663215  0.00000000
H        H    0.81854113  0.09117904  0.20301504  0.00000000
H        H    0.97985696  0.28823518  0.38994118  0.00000000
Cr       Cr   0.60960076  0.87399997  0.32879997  0.00000000
Cr       Cr   0.52720074  0.04329939  0.30390139  0.00000000
O        O    0.69139898  0.86909890  0.23489890  0.00000000
O        O    0.73060104  0.88590089  0.21469889  0.00000000
O        O    0.69660086  0.06330011  0.31030011  0.00000000
O        O    0.75680080  0.17960010  0.37980010  0.00000000
O        O    0.68080283  0.09110115  0.32190115  0.00000000
O        O    0.65280085  0.89499996  0.29319996  0.00000000
O        O    0.62280086  0.95240003  0.27420003  0.00000000
O        O    0.64479879  0.87099995  0.32699795  0.00000000
O        O    0.44460087  0.74439991  0.17599991  0.00000000
O        O    0.59240073  0.89070000  0.34130000  0.00000000
O        O    0.56940083  0.92029903  0.26810103  0.00000000
O        O    0.49740063  0.03699981  0.35379981  0.00000000
O        O    0.83960287  0.32210089  0.37690089  0.00000000
O        O    0.51979869  0.06529952  0.32769952  0.00000000
O        O    0.78140087  0.27330167  0.34969967  0.00000000
O        O    0.55000077  0.03000116  0.29319916  0.00000000
O        O    0.51360077  0.97670112  0.27369912  0.00000000
C        C    0.80220081  0.24440014  0.39440014  0.00000000
C        C    0.82880081  0.28190147  0.40509947  0.00000000
C        C    0.81540085  0.29410128  0.37709928  0.00000000
C        C    0.68000089  0.86469991  0.28309991  0.00000000
C        C    0.67320085  0.86149992  0.30649992  0.00000000
C        C    0.65520283  0.87509994  0.30750194  0.00000000
C        C    0.59380284  0.97620107  0.27240107  0.00000000
C        C    0.56219883  0.97469909  0.26449909  0.00000000
C        C    0.56880081  0.00490012  0.27710012  0.00000000
C        C    0.60580081  0.03470113  0.29430113  0.00000000
C        C    0.63500084  0.03520111  0.29540111  0.00000000
C        C    0.62540285  0.00620209  0.27860209  0.00000000
C        C    0.67259884  0.06459812  0.31060012  0.00000000
C        C    0.54340078  0.00400013  0.28240013  0.00000000
C        C    0.59520084  0.94890105  0.27170105  0.00000000
C        C    0.53060066  0.93319909  0.35500109  0.00000000
C        C    0.53520069  0.91490006  0.33350006  0.00000000
C        C    0.49900066  0.05800033  0.33720033  0.00000000
H        H    0.73578480  0.00646904  0.36533304  0.00000000
H        H    0.70190869  0.95121701  0.41733901  0.00000000
H        H    0.62393720  0.85366089  0.06262889  0.00000000
H        H    0.85560875  0.23228631  0.45886031  0.00000000
H        H    0.87924679  0.32480039  0.44482239  0.00000000
H        H    0.88844080  0.19507215  0.44559415  0.00000000
H        H    0.68146091  0.88447493  0.27263893  0.00000000
H        H    0.52014272  0.91008406  0.30837806  0.00000000
Cr       Cr   0.39039876  0.12599794  0.21919994  0.00000000
Cr       Cr   0.47280274  0.95670013  0.27670213  0.00000000
O        O    0.30859818  0.13089885  0.04349825  0.00000000
O        O    0.26940024  0.11410075  0.98409995  0.00000000
O        O    0.30339886  0.93669918  0.11369918  0.00000000
O        O    0.24320080  0.82040010  0.12300010  0.00000000
O        O    0.31920083  0.90890015  0.14110015  0.00000000
O        O    0.34720085  0.10500032  0.14040032  0.00000000
O        O    0.37720086  0.04759925  0.15140125  0.00000000
O        O    0.35520079  0.12900165  0.18219965  0.00000000
O        O    0.55540007  0.25560027  0.23139907  0.00000000
O        O    0.40760073  0.10929991  0.24889991  0.00000000
O        O    0.43059883  0.07970056  0.19869856  0.00000000
O        O    0.50260263  0.96300063  0.35640063  0.00000000
O        O    0.16040087  0.67789999  0.03729999  0.00000000
O        O    0.48020069  0.93469911  0.30790111  0.00000000
O        O    0.21859887  0.72670001  0.06829801  0.00000000
O        O    0.45000077  0.97000015  0.24320015  0.00000000
O        O    0.48640077  0.02330018  0.26010018  0.00000000
F        F    0.36960152  0.13449976  0.23789976  0.00000000
F        F    0.45140076  0.91770010  0.24869810  0.00000000
C        C    0.19780081  0.75560006  0.09220006  0.00000000
C        C    0.17120081  0.71809903  0.07630103  0.00000000
C        C    0.18459885  0.70590001  0.06170001  0.00000000
C        C    0.32000009  0.13529956  0.10309896  0.00000000
C        C    0.32680005  0.13850069  0.13329945  0.00000000
C        C    0.34480083  0.12489955  0.15230155  0.00000000
C        C    0.40620084  0.02379922  0.17860122  0.00000000
C        C    0.43780083  0.02530020  0.20230020  0.00000000
C        C    0.43120081  0.99509918  0.20829918  0.00000000
C        C    0.39420281  0.96530117  0.18850117  0.00000000
C        C    0.36499884  0.96479918  0.16039918  0.00000000
C        C    0.37460085  0.99380020  0.15320020  0.00000000
C        C    0.32740084  0.93540017  0.13800017  0.00000000
C        C    0.45660078  0.99599917  0.23899917  0.00000000
C        C    0.40480084  0.05110184  0.17649984  0.00000000
C        C    0.46940066  0.06680045  0.32440045  0.00000000
C        C    0.46480069  0.08509977  0.29829977  0.00000000
C        C    0.50100066  0.94200011  0.33820011  0.00000000
H        H    0.26421680  0.99353276  0.12955076  0.00000000
H        H    0.29809069  0.04878061  0.21543061  0.00000000
H        H    0.14439475  0.76771510  0.10325110  0.00000000
H        H    0.12075279  0.67520002  0.06557402  0.00000000
H        H    0.11156080  0.80492915  0.05715315  0.00000000
H        H    0.31854011  0.11552584  0.09117924  0.00000000
H        H    0.47985672  0.08991626  0.28823626  0.00000000
Cr       Cr   0.10960109  0.78079809  0.87400009  0.00000000
Cr       Cr   0.02720075  0.72329912  0.04330112  0.00000000
O        O    0.19140096  0.95649942  0.86909882  0.00000000
O        O    0.23060037  0.01590025  0.88589945  0.00000000
O        O    0.19660086  0.88629918  0.06329918  0.00000000
O        O    0.25679872  0.87699816  0.17959816  0.00000000
O        O    0.18080080  0.85890017  0.09110017  0.00000000
O        O    0.15279909  0.85959915  0.89499915  0.00000000
O        O    0.12280297  0.84860017  0.95240217  0.00000000
O        O    0.14480112  0.81780111  0.87099911  0.00000000
O        O    0.94460036  0.76860135  0.74440015  0.00000000
O        O    0.09240105  0.75109907  0.89069907  0.00000000
O        O    0.06940098  0.80130114  0.92029914  0.00000000
O        O    0.99740074  0.64359905  0.03699905  0.00000000
O        O    0.33959856  0.96269942  0.32209942  0.00000000
O        O    0.01980071  0.69209909  0.06530109  0.00000000
O        O    0.28140059  0.93170122  0.27329922  0.00000000
O        O    0.05000079  0.75680013  0.03000013  0.00000000
O        O    0.01360085  0.73990013  0.97670013  0.00000000
C        C    0.30220065  0.90780058  0.24440058  0.00000000
C        C    0.32879861  0.92369808  0.28190008  0.00000000
C        C    0.31540058  0.93830001  0.29410001  0.00000000
C        C    0.17999996  0.89689986  0.86469926  0.00000000
C        C    0.17319936  0.86669986  0.86149862  0.00000000
C        C    0.15520112  0.84769913  0.87510113  0.00000000
C        C    0.09380091  0.82139916  0.97620116  0.00000000
C        C    0.06220089  0.79770016  0.97470016  0.00000000
C        C    0.06880085  0.79170015  0.00490015  0.00000000
C        C    0.10580283  0.81150015  0.03470015  0.00000000
C        C    0.13500085  0.83960017  0.03520017  0.00000000
C        C    0.12539889  0.84679817  0.00619817  0.00000000
C        C    0.17260083  0.86200017  0.06460017  0.00000000
C        C    0.04340083  0.76100014  0.00400014  0.00000000
C        C    0.09520296  0.82350216  0.94890016  0.00000000
C        C    0.03060093  0.67560004  0.93320004  0.00000000
C        C    0.03520096  0.70169906  0.91489906  0.00000000
C        C    0.99900071  0.66180007  0.05800007  0.00000000
H        H    0.23578698  0.87045113  0.00646913  0.00000000
H        H    0.20190904  0.78456805  0.95121805  0.00000000
H        H    0.12393573  0.06130666  0.85366066  0.00000000
H        H    0.35560871  0.89675013  0.23228613  0.00000000
H        H    0.37924858  0.93442677  0.32480077  0.00000000
H        H    0.38844080  0.94284815  0.19507215  0.00000000
H        H    0.18145933  0.90882058  0.88447398  0.00000000
H        H    0.02014296  0.71176308  0.91008308  0.00000000
Cr       Cr   0.39040084  0.26439896  0.67119896  0.00000000
Cr       Cr   0.47280086  0.51609917  0.69610117  0.00000000
O        O    0.30859862  0.17769695  0.76509895  0.00000000
O        O    0.26940056  0.15530095  0.78529895  0.00000000
O        O    0.30340074  0.36669912  0.68969912  0.00000000
O        O    0.24320080  0.42280020  0.62019820  0.00000000
O        O    0.31919877  0.41029915  0.67809915  0.00000000
O        O    0.34720075  0.24220098  0.70679898  0.00000000
O        O    0.37720074  0.32960005  0.72580005  0.00000000
O        O    0.35520281  0.22620095  0.67300095  0.00000000
O        O    0.55540073  0.29980093  0.82400093  0.00000000
O        O    0.40760087  0.29829799  0.65869999  0.00000000
O        O    0.43060077  0.35090004  0.73190004  0.00000000
O        O    0.50260097  0.53959917  0.64619917  0.00000000
O        O    0.16039973  0.48250001  0.62310001  0.00000000
O        O    0.48020291  0.54550119  0.67230119  0.00000000
O        O    0.21860073  0.49190029  0.65030029  0.00000000
O        O    0.45000083  0.47999915  0.70680115  0.00000000
O        O    0.48640083  0.46310112  0.72629912  0.00000000
F        F    0.36960088  0.23509894  0.63170094  0.00000000
C        C    0.19780159  0.44220204  0.60560004  0.00000000
C        C    0.17119999  0.45309977  0.59489977  0.00000000
C        C    0.18460095  0.47870119  0.62289919  0.00000000
C        C    0.32000071  0.18469894  0.71690094  0.00000000
C        C    0.32680075  0.18829993  0.69349993  0.00000000
C        C    0.34479877  0.21989895  0.69249895  0.00000000
C        C    0.40619876  0.38239908  0.72759908  0.00000000
C        C    0.43780277  0.41250110  0.73550110  0.00000000
C        C    0.43120079  0.43610012  0.72290012  0.00000000
C        C    0.39420079  0.42889913  0.70569913  0.00000000
C        C    0.36500076  0.40020012  0.70460012  0.00000000
C        C    0.37459875  0.38079810  0.72139810  0.00000000
C        C    0.32740276  0.39200113  0.68940113  0.00000000
C        C    0.45660082  0.46060013  0.71760013  0.00000000
C        C    0.40480076  0.35370006  0.72830006  0.00000000
C        C    0.46940094  0.40260005  0.64500005  0.00000000
C        C    0.46480091  0.37969903  0.66649903  0.00000000
C        C    0.50100094  0.55899919  0.66280119  0.00000000
H        H    0.26421680  0.27068304  0.63466704  0.00000000
H        H    0.29809291  0.24930899  0.58266099  0.00000000
H        H    0.37606440  0.22972399  0.93737199  0.00000000
H        H    0.14439285  0.37667820  0.54114220  0.00000000
H        H    0.12075401  0.44555348  0.55517948  0.00000000
H        H    0.11156140  0.30663245  0.55440845  0.00000000
H        H    0.31854069  0.20301596  0.72735996  0.00000000
H        H    0.47985888  0.38994204  0.69162004  0.00000000
Cr       Cr   0.10959971  0.32879941  0.73559941  0.00000000
Cr       Cr   0.02720045  0.30389898  0.48390098  0.00000000
O        O    0.19140104  0.23489898  0.82230098  0.00000000
O        O    0.23060043  0.21470145  0.84469945  0.00000000
O        O    0.19659994  0.31029972  0.63329972  0.00000000
O        O    0.25680088  0.37980114  0.57719914  0.00000000
O        O    0.18080140  0.32190043  0.58970043  0.00000000
O        O    0.15280071  0.29320125  0.75779925  0.00000000
O        O    0.12280043  0.27420003  0.67040003  0.00000000
O        O    0.14480128  0.32700089  0.77380089  0.00000000
O        O    0.94460044  0.17599985  0.70019985  0.00000000
O        O    0.09239935  0.34129823  0.70170023  0.00000000
O        O    0.06939982  0.26810006  0.64910006  0.00000000
O        O    0.99740086  0.35379975  0.46039975  0.00000000
O        O    0.33960104  0.37690008  0.51750008  0.00000000
O        O    0.01980181  0.32770067  0.45450067  0.00000000
O        O    0.28140101  0.34970008  0.50810008  0.00000000
O        O    0.04999961  0.29319857  0.52000057  0.00000000
O        O    0.01360189  0.27370174  0.53689974  0.00000000
C        C    0.30220295  0.39440212  0.55780012  0.00000000
C        C    0.32880099  0.40510012  0.54690012  0.00000000
C        C    0.31540102  0.37710209  0.52130009  0.00000000
C        C    0.18000004  0.28309824  0.81530024  0.00000000
C        C    0.17319944  0.30649976  0.81169976  0.00000000
C        C    0.15520088  0.30750057  0.78010057  0.00000000
C        C    0.09380129  0.27240044  0.61760044  0.00000000
C        C    0.06220151  0.26450054  0.58750054  0.00000000
C        C    0.06880195  0.27709975  0.56389975  0.00000000
C        C    0.10580037  0.29429995  0.57109995  0.00000000
C        C    0.13499975  0.29539963  0.59979963  0.00000000
C        C    0.12540111  0.27860033  0.61920033  0.00000000
C        C    0.17260177  0.31060063  0.60800063  0.00000000
C        C    0.04340197  0.28239976  0.53939976  0.00000000
C        C    0.09520024  0.27170054  0.64630054  0.00000000
C        C    0.03060187  0.35500106  0.59740106  0.00000000
C        C    0.03519944  0.33349914  0.62029914  0.00000000
C        C    0.99899889  0.33719823  0.44100023  0.00000000
H        H    0.23578462  0.36533367  0.72931767  0.00000000
H        H    0.20191056  0.41733955  0.75069155  0.00000000
H        H    0.35560889  0.45885817  0.62332217  0.00000000
H        H    0.38844280  0.44559415  0.69337015  0.00000000
H        H    0.18145947  0.27264022  0.79698422  0.00000000
H        H    0.02014444  0.30838112  0.61005912  0.00000000
Cr       Cr   0.04520136  0.78079969  0.67120049  0.00000000
Cr       Cr   0.23940068  0.72330032  0.69610072  0.00000000
O        O    0.13420128  0.95650153  0.76510093  0.00000000
O        O    0.17119968  0.01589847  0.78529847  0.00000000
O        O    0.25300070  0.88629927  0.68970007  0.00000000
O        O    0.29980085  0.87699862  0.62019862  0.00000000
O        O    0.26920073  0.85889993  0.67809933  0.00000000
O        O    0.10180055  0.85959884  0.70679864  0.00000000
O        O    0.17820058  0.84859959  0.72579979  0.00000000
O        O    0.04399996  0.81779983  0.67299903  0.00000000
O        O    0.06840114  0.76860109  0.82399909  0.00000000
O        O    0.04940139  0.75110045  0.65870165  0.00000000
O        O    0.15219995  0.80129896  0.73189976  0.00000000
O        O    0.18320151  0.64359986  0.64619986  0.00000000
O        O    0.44520096  0.96269962  0.62309962  0.00000000
O        O    0.23760071  0.69209994  0.67229902  0.00000000
O        O    0.42360090  0.93169961  0.65029961  0.00000000
O        O    0.23680066  0.75679996  0.70680116  0.00000000
O        O    0.20300060  0.73989913  0.72629799  0.00000000
C        C    0.35000091  0.90779962  0.60559762  0.00000000
C        C    0.37680095  0.92369962  0.59489962  0.00000000
C        C    0.41699894  0.93829761  0.62289761  0.00000000
C        C    0.08160192  0.89690129  0.71690169  0.00000000
C        C    0.05500033  0.86669917  0.69350017  0.00000000
C        C    0.06760015  0.84769975  0.69249935  0.00000000
C        C    0.20380060  0.82139994  0.72759934  0.00000000
C        C    0.21020059  0.79770002  0.73549922  0.00000000
C        C    0.22780263  0.79170120  0.72290000  0.00000000
C        C    0.24040066  0.81149941  0.70569981  0.00000000
C        C    0.23980066  0.83959914  0.70460014  0.00000000
C        C    0.22760063  0.84679985  0.72139945  0.00000000
C        C    0.25400070  0.86200015  0.68939915  0.00000000
C        C    0.22160263  0.76100117  0.71759997  0.00000000
C        C    0.17719938  0.82349886  0.72829926  0.00000000
C        C    0.07820023  0.67559996  0.64499876  0.00000000
C        C    0.08140160  0.70169949  0.66650069  0.00000000
C        C    0.22079952  0.66179986  0.66279986  0.00000000
H        H    0.14113370  0.87045021  0.63466621  0.00000000
H        H    0.03388009  0.78457038  0.58266038  0.00000000
H        H    0.29103433  0.06130857  0.93737317  0.00000000
H        H    0.27342895  0.89674964  0.54114164  0.00000000
H        H    0.37997902  0.93442462  0.55517862  0.00000000
H        H    0.24947891  0.94284770  0.55440570  0.00000000
H        H    0.11183533  0.90881869  0.72735969  0.00000000
H        H    0.10170457  0.71176249  0.69161869  0.00000000
Cr       Cr   0.45480279  0.12600080  0.73560080  0.00000000
Cr       Cr   0.26060103  0.95670070  0.48390070  0.00000000
O        O    0.36580258  0.13090088  0.82230288  0.00000000
O        O    0.32880051  0.11409889  0.84469889  0.00000000
O        O    0.24700278  0.93670072  0.63330072  0.00000000
O        O    0.20020284  0.82039962  0.57719962  0.00000000
O        O    0.23080084  0.90889869  0.58970069  0.00000000
O        O    0.39820071  0.10499882  0.75779882  0.00000000
O        O    0.32180078  0.04759979  0.67039979  0.00000000
O        O    0.45600073  0.12900081  0.77379881  0.00000000
O        O    0.43159882  0.25559894  0.70019894  0.00000000
O        O    0.45060284  0.10930178  0.70170178  0.00000000
O        O    0.34780084  0.07969980  0.64909980  0.00000000
O        O    0.31680312  0.96300066  0.46040066  0.00000000
O        O    0.05480042  0.67789885  0.51749985  0.00000000
O        O    0.26240108  0.93470067  0.45449867  0.00000000
O        O    0.07640085  0.72669958  0.50809958  0.00000000
O        O    0.26320098  0.97000072  0.52000072  0.00000000
O        O    0.29700098  0.02329875  0.53689875  0.00000000
F        F    0.50280078  0.13450079  0.76490079  0.00000000
C        C    0.15000003  0.75559858  0.55779778  0.00000000
C        C    0.12320102  0.71809925  0.54690005  0.00000000
C        C    0.08300123  0.70589886  0.52129866  0.00000000
C        C    0.41840063  0.13530085  0.81530085  0.00000000
C        C    0.44500066  0.13849983  0.81169983  0.00000000
C        C    0.43240070  0.12489882  0.78010082  0.00000000
C        C    0.29620085  0.02379877  0.61760077  0.00000000
C        C    0.28980089  0.02530077  0.58749877  0.00000000
C        C    0.27220092  0.99509974  0.56389974  0.00000000
C        C    0.25960289  0.96530072  0.57110072  0.00000000
C        C    0.26020085  0.96479973  0.59979973  0.00000000
C        C    0.27240283  0.99379975  0.61920175  0.00000000
C        C    0.24600082  0.93540071  0.60799871  0.00000000
C        C    0.27840096  0.99599974  0.53939974  0.00000000
C        C    0.32280082  0.05109979  0.64629979  0.00000000
C        C    0.42180098  0.06679973  0.59739973  0.00000000
C        C    0.41860294  0.08510076  0.62030076  0.00000000
C        C    0.27920112  0.94200066  0.44100066  0.00000000
H        H    0.35886672  0.99353272  0.72931672  0.00000000
H        H    0.46612277  0.04878272  0.75069072  0.00000000
H        H    0.20896853  0.14633998  0.77027598  0.00000000
H        H    0.22657278  0.76771356  0.62332156  0.00000000
H        H    0.12002161  0.67519951  0.55444631  0.00000000
H        H    0.25052069  0.80492789  0.69336729  0.00000000
H        H    0.38816464  0.11552384  0.79698384  0.00000000
H        H    0.39829694  0.08991577  0.61005777  0.00000000
Cr       Cr   0.45480081  0.32880010  0.21920090  0.00000000
Cr       Cr   0.26060257  0.30390140  0.27670180  0.00000000
O        O    0.36580222  0.23490102  0.04350042  0.00000000
O        O    0.32880029  0.21469961  0.98409961  0.00000000
O        O    0.24700082  0.31029918  0.11369998  0.00000000
O        O    0.20020076  0.37979968  0.12299968  0.00000000
O        O    0.23080076  0.32189991  0.14109931  0.00000000
O        O    0.39820089  0.29319958  0.14039938  0.00000000
O        O    0.32180082  0.27420041  0.15140061  0.00000000
O        O    0.45600287  0.32699989  0.18219909  0.00000000
O        O    0.43160078  0.17600076  0.23139876  0.00000000
O        O    0.45060076  0.34129892  0.24890012  0.00000000
O        O    0.34780276  0.26809910  0.19869990  0.00000000
O        O    0.31680328  0.35380103  0.35640103  0.00000000
O        O    0.05480078  0.37689975  0.03729975  0.00000000
O        O    0.26240052  0.32770109  0.30790017  0.00000000
O        O    0.07639875  0.34969772  0.06829772  0.00000000
O        O    0.26319862  0.29319798  0.24319918  0.00000000
O        O    0.29699862  0.27369912  0.26009798  0.00000000
F        F    0.50279882  0.36829921  0.23789781  0.00000000
C        C    0.15000077  0.39440072  0.09219872  0.00000000
C        C    0.12319878  0.40509975  0.07629975  0.00000000
C        C    0.08299877  0.37709874  0.06169874  0.00000000
C        C    0.41840017  0.28309955  0.10309995  0.00000000
C        C    0.44500014  0.30649895  0.13329995  0.00000000
C        C    0.43240290  0.30750168  0.15230128  0.00000000
C        C    0.29620075  0.27240083  0.17860023  0.00000000
C        C    0.28980071  0.26449993  0.20229913  0.00000000
C        C    0.27220068  0.27710016  0.20829896  0.00000000
C        C    0.25960071  0.29429938  0.18849978  0.00000000
C        C    0.26020075  0.29539907  0.16040007  0.00000000
C        C    0.27240077  0.27859975  0.15319935  0.00000000
C        C    0.24599878  0.31059909  0.13799809  0.00000000
C        C    0.27840064  0.28240016  0.23899896  0.00000000
C        C    0.32280078  0.27169831  0.17649871  0.00000000
C        C    0.42180262  0.35500117  0.32439997  0.00000000
C        C    0.41860066  0.33349894  0.29830014  0.00000000
C        C    0.27920128  0.33720004  0.33820004  0.00000000
H        H    0.35886488  0.36533258  0.12954858  0.00000000
H        H    0.46612283  0.41734058  0.21543058  0.00000000
H        H    0.22657482  0.45885874  0.10325074  0.00000000
H        H    0.25052291  0.44559371  0.05715171  0.00000000
H        H    0.38816416  0.27263826  0.09117926  0.00000000
H        H    0.39829466  0.30837843  0.28823463  0.00000000
Cr       Cr   0.04520104  0.26440061  0.87400061  0.00000000
Cr       Cr   0.23940292  0.51610178  0.04330178  0.00000000
O        O    0.13420112  0.17769917  0.86910117  0.00000000
O        O    0.17119952  0.15529923  0.88589923  0.00000000
O        O    0.25300090  0.36669963  0.06329963  0.00000000
O        O    0.29980075  0.42279968  0.17959968  0.00000000
O        O    0.26920287  0.41029967  0.09110167  0.00000000
O        O    0.10179905  0.24219856  0.89499856  0.00000000
O        O    0.17819902  0.32959961  0.95239961  0.00000000
O        O    0.04400104  0.22619957  0.87099757  0.00000000
O        O    0.06840106  0.29979991  0.74439991  0.00000000
O        O    0.04940101  0.29829965  0.89069965  0.00000000
O        O    0.15220105  0.35089864  0.92029864  0.00000000
O        O    0.18320089  0.53959984  0.03699984  0.00000000
O        O    0.44520264  0.48250018  0.32210118  0.00000000
O        O    0.23759889  0.54550082  0.06529882  0.00000000
O        O    0.42360070  0.49189869  0.27329869  0.00000000
O        O    0.23680094  0.47999974  0.02999974  0.00000000
O        O    0.20300100  0.46309974  0.97669974  0.00000000
F        F    0.28500090  0.53369878  0.08229878  0.00000000
C        C    0.34999869  0.44219908  0.24439828  0.00000000
C        C    0.37680065  0.45310028  0.28190108  0.00000000
C        C    0.41700066  0.47869979  0.29409959  0.00000000
C        C    0.08160168  0.18470051  0.86470051  0.00000000
C        C    0.05500007  0.18829941  0.86149941  0.00000000
C        C    0.06760305  0.21990055  0.87510255  0.00000000
C        C    0.20379900  0.38239866  0.97620066  0.00000000
C        C    0.21019901  0.41249968  0.97469768  0.00000000
C        C    0.22780097  0.43609970  0.00489970  0.00000000
C        C    0.24040094  0.42889969  0.03469969  0.00000000
C        C    0.23979894  0.40019866  0.03519866  0.00000000
C        C    0.22760097  0.38079865  0.00620065  0.00000000
C        C    0.25400090  0.39200065  0.06459865  0.00000000
C        C    0.22160097  0.46059973  0.00399973  0.00000000
C        C    0.17720102  0.35369864  0.94889864  0.00000000
C        C    0.07820297  0.40260074  0.93320074  0.00000000
C        C    0.08140100  0.37969971  0.91489971  0.00000000
C        C    0.22079888  0.55899884  0.05799884  0.00000000
H        H    0.14113490  0.27068359  0.00646759  0.00000000
H        H    0.03387891  0.24930962  0.95121762  0.00000000
H        H    0.27342865  0.37667766  0.23228566  0.00000000
H        H    0.24948069  0.30663190  0.19507130  0.00000000
H        H    0.11183507  0.20301421  0.88447421  0.00000000
H        H    0.10170703  0.38994171  0.91008371  0.00000000
Cr       Cr   0.59320068  0.32880095  0.87399895  0.00000000
Cr       Cr   0.81999859  0.30389882  0.04329882  0.00000000
O        O    0.41259854  0.23490096  0.86909896  0.00000000
O        O    0.37000248  0.21470097  0.88590097  0.00000000
O        O    0.67700044  0.31030092  0.06329892  0.00000000
O        O    0.80260235  0.37980193  0.17959993  0.00000000
O        O    0.73220044  0.32190090  0.09110090  0.00000000
O        O    0.53540260  0.29320095  0.89500095  0.00000000
O        O    0.60380056  0.27419990  0.95239990  0.00000000
O        O    0.55320065  0.32699897  0.87099897  0.00000000
O        O    0.47580079  0.17599884  0.74440084  0.00000000
O        O    0.63959869  0.34129994  0.89069794  0.00000000
O        O    0.61900062  0.26809988  0.92029988  0.00000000
O        O    0.89340066  0.35380083  0.03699883  0.00000000
O        O    0.85940017  0.37690023  0.32210063  0.00000000
O        O    0.87320059  0.32769882  0.06529882  0.00000000
O        O    0.84160024  0.34969990  0.27329990  0.00000000
O        O    0.77319857  0.29319884  0.02999884  0.00000000
O        O    0.73680263  0.27370083  0.97670083  0.00000000
F        F    0.60339870  0.36829898  0.86549898  0.00000000
C        C    0.83660228  0.39440014  0.24440094  0.00000000
C        C    0.85820024  0.40510045  0.28190025  0.00000000
C        C    0.85580221  0.37710102  0.29410062  0.00000000
C        C    0.46779859  0.28309898  0.86469898  0.00000000
C        C    0.49480062  0.30649998  0.86149998  0.00000000
C        C    0.52740062  0.30750097  0.87510097  0.00000000
C        C    0.65480056  0.27240087  0.97620087  0.00000000
C        C    0.67700058  0.26449885  0.97469885  0.00000000
C        C    0.71320056  0.27709985  0.00489985  0.00000000
C        C    0.72320052  0.29430087  0.03469887  0.00000000
C        C    0.69560050  0.29539989  0.03519989  0.00000000
C        C    0.65940052  0.27860188  0.00619988  0.00000000
C        C    0.70260046  0.31059890  0.06459890  0.00000000
C        C    0.74300059  0.28239984  0.00399984  0.00000000
C        C    0.62540058  0.27169989  0.94889989  0.00000000
C        C    0.75760071  0.35499989  0.93319989  0.00000000
C        C    0.71320071  0.33350089  0.91489889  0.00000000
C        C    0.89619862  0.33719881  0.05799881  0.00000000
H        H    0.63601650  0.36533299  0.00646699  0.00000000
H        H    0.66664861  0.41733901  0.95121701  0.00000000
H        H    0.29235247  0.06262786  0.85365986  0.00000000
H        H    0.83553630  0.45885800  0.23228600  0.00000000
H        H    0.89037419  0.44482078  0.32479998  0.00000000
H        H    0.75222429  0.44559173  0.19507173  0.00000000
H        H    0.47565657  0.27263996  0.88447596  0.00000000
H        H    0.69832270  0.30837987  0.91008387  0.00000000
Cr       Cr   0.59320012  0.26440075  0.21919995  0.00000000
Cr       Cr   0.81999821  0.51609928  0.27669928  0.00000000
O        O    0.41259826  0.17769904  0.04349824  0.00000000
O        O    0.37000232  0.15530053  0.98410133  0.00000000
O        O    0.67700036  0.36670038  0.11370038  0.00000000
O        O    0.80260245  0.42280097  0.12300097  0.00000000
O        O    0.73220036  0.41029970  0.14109970  0.00000000
O        O    0.53540220  0.24220085  0.14040085  0.00000000
O        O    0.60380024  0.32960010  0.15140010  0.00000000
O        O    0.55320015  0.22619923  0.18219983  0.00000000
O        O    0.47580081  0.29979876  0.23139816  0.00000000
O        O    0.63959811  0.29829996  0.24889916  0.00000000
O        O    0.61900018  0.35090012  0.19870072  0.00000000
O        O    0.89340094  0.53959997  0.35639897  0.00000000
O        O    0.85940063  0.48249997  0.03729997  0.00000000
O        O    0.87320021  0.54549962  0.30789962  0.00000000
O        O    0.84160056  0.49190000  0.06830000  0.00000000
O        O    0.77319823  0.47999966  0.24319966  0.00000000
O        O    0.73680217  0.46310050  0.26010050  0.00000000
C        C    0.83660252  0.44219996  0.09219996  0.00000000
C        C    0.85820056  0.45309995  0.07629995  0.00000000
C        C    0.85580259  0.47869998  0.06170198  0.00000000
C        C    0.46779821  0.18469982  0.10309842  0.00000000
C        C    0.49480018  0.18830032  0.13330052  0.00000000
C        C    0.52740018  0.21989953  0.15229993  0.00000000
C        C    0.65480024  0.38239973  0.17859973  0.00000000
C        C    0.67700022  0.41249965  0.20229965  0.00000000
C        C    0.71320024  0.43610045  0.20829845  0.00000000
C        C    0.72320028  0.42890023  0.18850023  0.00000000
C        C    0.69560030  0.40020051  0.16040051  0.00000000
C        C    0.65940028  0.38079982  0.15319982  0.00000000
C        C    0.70260034  0.39199950  0.13799950  0.00000000
C        C    0.74300021  0.46060046  0.23899846  0.00000000
C        C    0.62540022  0.35369961  0.17650081  0.00000000
C        C    0.75760009  0.40259921  0.32439961  0.00000000
C        C    0.71320009  0.37970111  0.29830011  0.00000000
C        C    0.89620098  0.55899949  0.33819949  0.00000000
H        H    0.63601630  0.27068241  0.12954941  0.00000000
H        H    0.66664819  0.24930859  0.21542919  0.00000000
H        H    0.29235233  0.22972534  0.93869134  0.00000000
H        H    0.83553650  0.37667790  0.10324990  0.00000000
H        H    0.75222451  0.30662987  0.05715187  0.00000000
H        H    0.47565623  0.20301584  0.09118104  0.00000000
H        H    0.69832210  0.38994113  0.28823713  0.00000000
Cr       Cr   0.90680035  0.78080018  0.73559938  0.00000000
Cr       Cr   0.68000057  0.72329981  0.48389981  0.00000000
O        O    0.08740095  0.95650157  0.82230077  0.00000000
O        O    0.13000115  0.01589991  0.84470071  0.00000000
O        O    0.82299845  0.88629892  0.63329892  0.00000000
O        O    0.69740043  0.87699997  0.57719997  0.00000000
O        O    0.76779847  0.85889992  0.58969992  0.00000000
O        O    0.96460036  0.85959983  0.75779983  0.00000000
O        O    0.89620044  0.84859984  0.67039984  0.00000000
O        O    0.94680032  0.81779850  0.77379910  0.00000000
O        O    0.02420170  0.76860059  0.70019999  0.00000000
O        O    0.86040037  0.75110018  0.70169938  0.00000000
O        O    0.88100047  0.80129950  0.64910010  0.00000000
O        O    0.60660255  0.64360127  0.46040027  0.00000000
O        O    0.64059848  0.96269958  0.51749958  0.00000000
O        O    0.62680057  0.69209881  0.45449881  0.00000000
O        O    0.65840051  0.93170004  0.50810004  0.00000000
O        O    0.72680055  0.75679982  0.51999982  0.00000000
O        O    0.76320055  0.73989979  0.53689979  0.00000000
C        C    0.66340044  0.90779962  0.55779962  0.00000000
C        C    0.64180044  0.92370045  0.54690045  0.00000000
C        C    0.64420048  0.93829896  0.52130096  0.00000000
C        C    0.03220092  0.89690084  0.81529944  0.00000000
C        C    0.00520155  0.86670035  0.81170055  0.00000000
C        C    0.97260033  0.84770062  0.78010102  0.00000000
C        C    0.84520049  0.82140084  0.61760084  0.00000000
C        C    0.82299852  0.79769782  0.58749782  0.00000000
C        C    0.78680253  0.79170183  0.56389983  0.00000000
C        C    0.77680051  0.81149986  0.57109986  0.00000000
C        C    0.80440048  0.83959988  0.59979988  0.00000000
C        C    0.84060048  0.84680087  0.61920087  0.00000000
C        C    0.79740247  0.86199991  0.60799991  0.00000000
C        C    0.75700254  0.76100181  0.53939981  0.00000000
C        C    0.87460047  0.82349923  0.64630043  0.00000000
C        C    0.74239844  0.67559855  0.59739895  0.00000000
C        C    0.78680244  0.70170125  0.62030025  0.00000000
C        C    0.60380058  0.66179979  0.44099979  0.00000000
H        H    0.86398432  0.87045040  0.72931740  0.00000000
H        H    0.83335227  0.78456953  0.75069013  0.00000000
H        H    0.66446233  0.89674902  0.62332102  0.00000000
H        H    0.74777629  0.94284673  0.69336873  0.00000000
H        H    0.02434694  0.90882055  0.79698575  0.00000000
H        H    0.80167847  0.71176175  0.61005775  0.00000000
Cr       Cr   0.90680045  0.12600152  0.67119952  0.00000000
Cr       Cr   0.68000023  0.95670029  0.69610029  0.00000000
O        O    0.08740105  0.13090103  0.76509903  0.00000000
O        O    0.13000125  0.11410039  0.78530039  0.00000000
O        O    0.82299835  0.93670038  0.68969838  0.00000000
O        O    0.69740037  0.82040093  0.62019893  0.00000000
O        O    0.76779833  0.90889868  0.67809868  0.00000000
O        O    0.96460044  0.10499997  0.70679997  0.00000000
O        O    0.89620036  0.04760016  0.72580016  0.00000000
O        O    0.94680048  0.12899970  0.67299970  0.00000000
O        O    0.02420110  0.25559761  0.82399961  0.00000000
O        O    0.86040043  0.10930172  0.65869972  0.00000000
O        O    0.88100033  0.07970050  0.73190050  0.00000000
O        O    0.60660105  0.96300053  0.64619853  0.00000000
O        O    0.64059832  0.67789862  0.62309902  0.00000000
O        O    0.62680023  0.93469963  0.67229963  0.00000000
O        O    0.65840029  0.72669986  0.65029986  0.00000000
O        O    0.72680025  0.97000068  0.70680068  0.00000000
O        O    0.76320025  0.02329954  0.72629954  0.00000000
C        C    0.66340036  0.75559848  0.60559928  0.00000000
C        C    0.64180036  0.71809995  0.59489975  0.00000000
C        C    0.64420032  0.70590004  0.62289964  0.00000000
C        C    0.03220108  0.13530056  0.71690056  0.00000000
C        C    0.00520173  0.13850119  0.69350119  0.00000000
C        C    0.97260047  0.12489988  0.69249988  0.00000000
C        C    0.84520031  0.02379976  0.72759976  0.00000000
C        C    0.82299828  0.02529868  0.73549868  0.00000000
C        C    0.78680227  0.99510047  0.72290047  0.00000000
C        C    0.77680029  0.96530124  0.70569924  0.00000000
C        C    0.80440032  0.96480052  0.70460052  0.00000000
C        C    0.84060032  0.99380083  0.72139883  0.00000000
C        C    0.79740233  0.93540049  0.68940049  0.00000000
C        C    0.75700226  0.99600049  0.71760049  0.00000000
C        C    0.87460033  0.05110027  0.72830027  0.00000000
C        C    0.74239836  0.06679855  0.64499855  0.00000000
C        C    0.78680236  0.08510275  0.66650075  0.00000000
C        C    0.60380102  0.94199951  0.66279951  0.00000000
H        H    0.86398448  0.99353300  0.63466700  0.00000000
H        H    0.83335253  0.04878207  0.58266007  0.00000000
H        H    0.66446247  0.76771288  0.54114088  0.00000000
H        H    0.74777651  0.80492687  0.55440687  0.00000000
H        H    0.02434706  0.11552585  0.72736185  0.00000000
H        H    0.80167833  0.08991525  0.69161925  0.00000000
Cr       Cr   0.32020023  0.12709974  0.01330074  0.00000000
Cr       Cr   0.36400085  0.07740009  0.15060009  0.00000000
O        O    0.09880105  0.80380012  0.89380012  0.00000000
C        C    0.18490080  0.77680108  0.09299908  0.00000000
C        C    0.13620079  0.70050203  0.07190003  0.00000000
C        C    0.20999879  0.80909911  0.11089911  0.00000000
C        C    0.43919863  0.05059975  0.32779975  0.00000000
C        C    0.44160069  0.09509989  0.28810189  0.00000000
C        C    0.43499873  0.10750080  0.26249880  0.00000000
Cr       Cr   0.17979975  0.98669905  0.87290005  0.00000000
Cr       Cr   0.13599903  0.84940015  0.92260015  0.00000000
O        O    0.40120081  0.10620090  0.19620090  0.00000000
F        F    0.16680103  0.89610018  0.93750018  0.00000000
C        C    0.31509869  0.90700056  0.22319856  0.00000000
C        C    0.36380061  0.92810087  0.29949887  0.00000000
C        C    0.29000073  0.88910015  0.19090015  0.00000000
C        C    0.06080093  0.67220003  0.94940003  0.00000000
C        C    0.05840100  0.71189906  0.90490106  0.00000000
C        C    0.06500102  0.73750108  0.89249908  0.00000000
Cr       Cr   0.17979985  0.19310005  0.80690005  0.00000000
Cr       Cr   0.13600097  0.28660015  0.71340015  0.00000000
O        O    0.40120079  0.29500000  0.70500000  0.00000000
F        F    0.16679957  0.27070012  0.72930012  0.00000000
C        C    0.31510091  0.40810014  0.59190014  0.00000000
C        C    0.36379899  0.43570013  0.56430013  0.00000000
C        C    0.29000087  0.40090015  0.59910015  0.00000000
C        C    0.06079967  0.38860127  0.61139927  0.00000000
C        C    0.05839940  0.34650024  0.65350024  0.00000000
C        C    0.06499958  0.32750022  0.67250022  0.00000000
Cr       Cr   0.32020057  0.19309996  0.80689996  0.00000000
Cr       Cr   0.36399875  0.28660001  0.71340001  0.00000000
O        O    0.09879935  0.29500018  0.70500018  0.00000000
F        F    0.29280057  0.21159899  0.78840099  0.00000000
C        C    0.18490000  0.40810022  0.59190022  0.00000000
C        C    0.13620141  0.43570027  0.56430027  0.00000000
C        C    0.21000081  0.40090019  0.59910019  0.00000000
C        C    0.43920097  0.38860105  0.61139905  0.00000000
C        C    0.44160091  0.34650001  0.65350001  0.00000000
C        C    0.43500087  0.32750000  0.67250000  0.00000000
Cr       Cr   0.11379940  0.98669908  0.80689968  0.00000000
Cr       Cr   0.92680240  0.84940204  0.71340164  0.00000000
O        O    0.90999840  0.10619970  0.70499970  0.00000000
C        C    0.68380040  0.90700042  0.59190042  0.00000000
C        C    0.62860040  0.92809876  0.56430076  0.00000000
C        C    0.69820040  0.88909999  0.59909999  0.00000000
C        C    0.72280040  0.67219926  0.61140026  0.00000000
C        C    0.80700040  0.71189916  0.65350036  0.00000000
C        C    0.84500040  0.73749926  0.67250026  0.00000000
Cr       Cr   0.11379940  0.12709982  0.80689982  0.00000000
Cr       Cr   0.92680240  0.07739986  0.71340186  0.00000000
O        O    0.90999840  0.80379820  0.70499940  0.00000000
F        F    0.95860240  0.06250153  0.72930153  0.00000000
C        C    0.68380040  0.77679948  0.59190028  0.00000000
C        C    0.62860040  0.70050114  0.56430054  0.00000000
C        C    0.69820040  0.80909991  0.59909991  0.00000000
C        C    0.72280040  0.05060064  0.61140064  0.00000000
C        C    0.80700040  0.09510074  0.65350074  0.00000000
C        C    0.84500040  0.10750064  0.67250064  0.00000000
Cr       Cr   0.38620029  0.19309996  0.01330056  0.00000000
Cr       Cr   0.57320022  0.28659997  0.15059957  0.00000000
O        O    0.59000064  0.29499992  0.89379992  0.00000000
F        F    0.54140027  0.27069997  0.10390097  0.00000000
C        C    0.81620050  0.40809994  0.09299994  0.00000000
C        C    0.87140058  0.43569993  0.07190193  0.00000000
C        C    0.80180046  0.40089994  0.11089994  0.00000000
C        C    0.77720210  0.38860099  0.32780199  0.00000000
C        C    0.69300009  0.34649999  0.28810119  0.00000000
C        C    0.65500010  0.32749999  0.26250099  0.00000000
Cr       Cr   0.38620051  0.19309994  0.87289994  0.00000000
Cr       Cr   0.57320058  0.28659993  0.92260193  0.00000000
O        O    0.59000016  0.29499998  0.19620118  0.00000000
C        C    0.81620030  0.40809996  0.22320076  0.00000000
C        C    0.87140022  0.43569997  0.29949937  0.00000000
C        C    0.80180034  0.40089996  0.19089996  0.00000000
C        C    0.77720270  0.38860091  0.94940091  0.00000000
C        C    0.69300071  0.34649991  0.90489991  0.00000000
C        C    0.65500070  0.32749991  0.89249991  0.00000000
Cr       Cr   0.17979975  0.19310026  0.87290026  0.00000000
Cr       Cr   0.13599903  0.28659759  0.92259959  0.00000000
O        O    0.40120081  0.29499889  0.19620009  0.00000000
F        F    0.20720030  0.21159977  0.91879977  0.00000000
C        C    0.31509869  0.40809726  0.22319806  0.00000000
C        C    0.36380061  0.43569898  0.29949838  0.00000000
C        C    0.29000073  0.40089967  0.19089967  0.00000000
C        C    0.06080093  0.38859974  0.94939974  0.00000000
C        C    0.05840100  0.34650069  0.90490069  0.00000000
C        C    0.06500102  0.32749867  0.89249867  0.00000000
Cr       Cr   0.32020023  0.19310020  0.01330080  0.00000000
Cr       Cr   0.36400085  0.28659970  0.15059930  0.00000000
O        O    0.09880105  0.29499961  0.89379961  0.00000000
F        F    0.29280023  0.21159974  0.00439974  0.00000000
C        C    0.18490080  0.40809872  0.09299872  0.00000000
C        C    0.13620079  0.43569777  0.07189977  0.00000000
C        C    0.20999879  0.40089870  0.11089870  0.00000000
C        C    0.43919863  0.38859809  0.32779909  0.00000000
C        C    0.44160069  0.34649994  0.28810114  0.00000000
C        C    0.43499873  0.32749702  0.26249802  0.00000000
Cr       Cr   0.17979985  0.98669924  0.80689984  0.00000000
Cr       Cr   0.13600097  0.84940011  0.71339971  0.00000000
O        O    0.40120079  0.10619981  0.70499981  0.00000000
F        F    0.20720050  0.99560083  0.78840083  0.00000000
C        C    0.31510091  0.90699964  0.59189964  0.00000000
C        C    0.36379899  0.92809762  0.56429962  0.00000000
C        C    0.29000087  0.88909963  0.59909963  0.00000000
C        C    0.06079967  0.67219756  0.61139856  0.00000000
C        C    0.05839940  0.71189841  0.65349961  0.00000000
C        C    0.06499958  0.73749863  0.67249963  0.00000000
Cr       Cr   0.32020057  0.12709990  0.80689990  0.00000000
Cr       Cr   0.36399875  0.07739780  0.71339980  0.00000000
O        O    0.09879935  0.80379849  0.70499969  0.00000000
C        C    0.18490000  0.77679878  0.59189958  0.00000000
C        C    0.13620141  0.70050013  0.56429953  0.00000000
C        C    0.21000081  0.80909960  0.59909960  0.00000000
C        C    0.43920097  0.05059871  0.61139871  0.00000000
C        C    0.44160091  0.09509976  0.65349976  0.00000000
C        C    0.43500087  0.10749978  0.67249978  0.00000000
Cr       Cr   0.67980137  0.87289986  0.98669986  0.00000000
Cr       Cr   0.63600075  0.92259781  0.84939921  0.00000000
O        O    0.90120055  0.19620028  0.10619908  0.00000000
C        C    0.81510080  0.22319872  0.90699872  0.00000000
C        C    0.86380081  0.29949977  0.92809977  0.00000000
C        C    0.79000281  0.19090069  0.88910069  0.00000000
C        C    0.56080297  0.94940055  0.67220055  0.00000000
C        C    0.55840091  0.90489951  0.71189951  0.00000000
C        C    0.56500287  0.89250060  0.73750040  0.00000000
Cr       Cr   0.82020125  0.01330095  0.12710095  0.00000000
Cr       Cr   0.86400257  0.15059995  0.07740135  0.00000000
O        O    0.59880079  0.89380010  0.80379890  0.00000000
F        F    0.83320057  0.10389792  0.06249932  0.00000000
C        C    0.68490291  0.09300064  0.77680064  0.00000000
C        C    0.63620099  0.07189963  0.70049963  0.00000000
C        C    0.71000087  0.11089865  0.80909865  0.00000000
C        C    0.93920067  0.32779877  0.05059877  0.00000000
C        C    0.94160060  0.28809974  0.09509974  0.00000000
C        C    0.93500058  0.26249882  0.10749862  0.00000000
Cr       Cr   0.67980103  0.80690184  0.19309984  0.00000000
Cr       Cr   0.63600285  0.71340079  0.28660079  0.00000000
O        O    0.90120305  0.70500062  0.29500062  0.00000000
F        F    0.70720103  0.78839881  0.21159881  0.00000000
C        C    0.81510080  0.59189908  0.40810008  0.00000000
C        C    0.86380079  0.56429903  0.43570003  0.00000000
C        C    0.79000079  0.59909921  0.40089801  0.00000000
C        C    0.56080063  0.61139875  0.38859875  0.00000000
C        C    0.55840069  0.65349979  0.34649979  0.00000000
C        C    0.56500073  0.67249880  0.32749880  0.00000000
Cr       Cr   0.82020115  0.80690075  0.19309875  0.00000000
Cr       Cr   0.86400103  0.71339865  0.28659865  0.00000000
O        O    0.59880081  0.70499980  0.29499980  0.00000000
F        F    0.79280110  0.78839976  0.21159976  0.00000000
C        C    0.68490069  0.59189816  0.40809916  0.00000000
C        C    0.63620261  0.56430017  0.43570117  0.00000000
C        C    0.71000073  0.59910025  0.40089905  0.00000000
C        C    0.93920093  0.61139953  0.38859953  0.00000000
C        C    0.94160300  0.65350056  0.34650056  0.00000000
C        C    0.93500102  0.67249958  0.32749958  0.00000000
Cr       Cr   0.82020115  0.01329896  0.19309896  0.00000000
Cr       Cr   0.86400103  0.15060109  0.28659909  0.00000000
O        O    0.59880081  0.89379999  0.29499999  0.00000000
C        C    0.68490069  0.09300166  0.40809966  0.00000000
C        C    0.63620261  0.07190168  0.43570168  0.00000000
C        C    0.71000073  0.11089957  0.40089957  0.00000000
C        C    0.93920093  0.32780024  0.38860024  0.00000000
C        C    0.94160300  0.28810119  0.34650119  0.00000000
C        C    0.93500102  0.26250017  0.32750017  0.00000000
Cr       Cr   0.67980103  0.87289790  0.19309990  0.00000000
Cr       Cr   0.63600285  0.92260100  0.28660100  0.00000000
O        O    0.90120305  0.19620111  0.29500111  0.00000000
F        F    0.66680090  0.93750099  0.27069899  0.00000000
C        C    0.81510080  0.22320072  0.40810072  0.00000000
C        C    0.86380079  0.29950077  0.43570077  0.00000000
C        C    0.79000079  0.19090060  0.40089860  0.00000000
C        C    0.56080063  0.94940109  0.38859909  0.00000000
C        C    0.55840069  0.90490004  0.34650004  0.00000000
C        C    0.56500073  0.89250102  0.32749902  0.00000000
Cr       Cr   0.67980137  0.80689980  0.98669980  0.00000000
Cr       Cr   0.63600075  0.71340200  0.84940000  0.00000000
O        O    0.90120055  0.70499959  0.10619959  0.00000000
F        F    0.70720137  0.78839976  0.99559976  0.00000000
C        C    0.81510080  0.59190108  0.90699908  0.00000000
C        C    0.86380081  0.56430003  0.92810003  0.00000000
C        C    0.79000281  0.59910110  0.88910110  0.00000000
C        C    0.56080297  0.61140121  0.67220121  0.00000000
C        C    0.55840091  0.65350026  0.71190026  0.00000000
C        C    0.56500287  0.67250118  0.73750118  0.00000000
Cr       Cr   0.82020125  0.80689874  0.12710074  0.00000000
Cr       Cr   0.86400257  0.71340191  0.07740191  0.00000000
O        O    0.59880079  0.70499971  0.80379971  0.00000000
F        F    0.83320057  0.72930194  0.06249994  0.00000000
C        C    0.68490291  0.59190114  0.77680114  0.00000000
C        C    0.63620099  0.56430012  0.70050012  0.00000000
C        C    0.71000087  0.59910113  0.80909913  0.00000000
C        C    0.93920067  0.61140106  0.05059906  0.00000000
C        C    0.94160060  0.65350011  0.09510011  0.00000000
C        C    0.93500058  0.67250103  0.10749903  0.00000000
Cr       Cr   0.61380109  0.80689986  0.12710186  0.00000000
Cr       Cr   0.42680102  0.71339987  0.07739987  0.00000000
O        O    0.41000144  0.70499982  0.80379982  0.00000000
F        F    0.45860107  0.72929987  0.06249787  0.00000000
C        C    0.18380130  0.59189984  0.77679984  0.00000000
C        C    0.12860138  0.56429983  0.70049983  0.00000000
C        C    0.19820126  0.59909984  0.80909784  0.00000000
C        C    0.22279890  0.61139889  0.05059689  0.00000000
C        C    0.30700089  0.65349989  0.09509989  0.00000000
C        C    0.34500090  0.67249989  0.10749789  0.00000000
Cr       Cr   0.61380131  0.80689984  0.98669984  0.00000000
Cr       Cr   0.42680138  0.71339983  0.84939783  0.00000000
O        O    0.41000096  0.70499988  0.10619988  0.00000000
C        C    0.18380110  0.59189986  0.90699786  0.00000000
C        C    0.12860102  0.56429987  0.92809987  0.00000000
C        C    0.19820114  0.59909986  0.88909986  0.00000000
C        C    0.22279950  0.61139881  0.67219881  0.00000000
C        C    0.30700151  0.65349981  0.71189981  0.00000000
C        C    0.34500150  0.67249981  0.73749981  0.00000000
Cr       Cr   0.88620120  0.01330092  0.19310092  0.00000000
Cr       Cr   0.07319980  0.15060026  0.28659826  0.00000000
O        O    0.09000240  0.89380030  0.29500030  0.00000000
F        F    0.92320120  0.00439889  0.21159889  0.00000000
C        C    0.31620120  0.09300078  0.40809878  0.00000000
C        C    0.37140120  0.07189974  0.43569974  0.00000000
C        C    0.30180120  0.11089881  0.40089881  0.00000000
C        C    0.27720120  0.32779904  0.38859904  0.00000000
C        C    0.19300120  0.28810004  0.34650004  0.00000000
C        C    0.15500140  0.26249913  0.32749913  0.00000000
Cr       Cr   0.88620120  0.87289878  0.19310078  0.00000000
Cr       Cr   0.07319980  0.92259804  0.28659804  0.00000000
O        O    0.09000240  0.19620060  0.29500060  0.00000000
C        C    0.31620120  0.22319892  0.40809892  0.00000000
C        C    0.37140120  0.29949996  0.43569996  0.00000000
C        C    0.30180120  0.19090089  0.40089889  0.00000000
C        C    0.27720120  0.94940066  0.38859866  0.00000000
C        C    0.19300120  0.90489966  0.34649966  0.00000000
C        C    0.15500140  0.89250076  0.32749876  0.00000000
Cr       Cr   0.25000285  0.90690118  0.09310118  0.00000000
O        O    0.25000281  0.88050115  0.11950115  0.00000000
Cr       Cr   0.25000075  0.34309912  0.65690112  0.00000000
O        O    0.25000079  0.36950115  0.63049915  0.00000000
Cr       Cr   0.81380040  0.90689995  0.65689995  0.00000000
O        O    0.76100040  0.88049995  0.63049995  0.00000000
Cr       Cr   0.68619840  0.34309895  0.09309895  0.00000000
O        O    0.73900240  0.36950095  0.11950095  0.00000000
Cr       Cr   0.25000285  0.34310061  0.09310061  0.00000000
O        O    0.25000281  0.36950064  0.11950064  0.00000000
Cr       Cr   0.25000075  0.90690069  0.65690069  0.00000000
O        O    0.25000079  0.88049866  0.63049866  0.00000000
Cr       Cr   0.74999875  0.09309932  0.90689992  0.00000000
O        O    0.74999879  0.11949965  0.88049965  0.00000000
Cr       Cr   0.75000085  0.65690068  0.34310068  0.00000000
O        O    0.75000081  0.63050065  0.36950065  0.00000000
Cr       Cr   0.75000085  0.09309911  0.34310111  0.00000000
O        O    0.75000081  0.11949914  0.36950114  0.00000000
Cr       Cr   0.74999875  0.65689849  0.90690049  0.00000000
O        O    0.74999879  0.63049816  0.88050016  0.00000000
Cr       Cr   0.31380320  0.65690085  0.90690285  0.00000000
O        O    0.26099920  0.63049885  0.88050085  0.00000000
Cr       Cr   0.18620060  0.09309955  0.34310155  0.00000000
O        O    0.23900120  0.11949985  0.36950185  0.00000000
Cr       Cr   0.21870076  0.86510116  0.13490116  0.00000000
F        F    0.18239872  0.85649918  0.14349918  0.00000000
C        C    0.29520036  0.07739988  0.92259988  0.00000000
Cr       Cr   0.28129881  0.86509912  0.13489912  0.00000000
C        C    0.20479829  0.07739994  0.92259994  0.00000000
Cr       Cr   0.28130079  0.41620118  0.64640118  0.00000000
F        F    0.31760078  0.46110021  0.67410021  0.00000000
C        C    0.20479851  0.12739896  0.78219896  0.00000000
Cr       Cr   0.21869884  0.35359914  0.58379914  0.00000000
C        C    0.29520044  0.21780102  0.87260102  0.00000000
Cr       Cr   0.73020035  0.86509996  0.64640196  0.00000000
C        C    0.15480047  0.07739994  0.78219994  0.00000000
Cr       Cr   0.73020045  0.86509994  0.58379994  0.00000000
F        F    0.71300051  0.85649994  0.53889994  0.00000000
C        C    0.15480033  0.07739996  0.87260196  0.00000000
Cr       Cr   0.76980040  0.35359892  0.13490092  0.00000000
F        F    0.78700040  0.32589988  0.14349988  0.00000000
C        C    0.34520040  0.21780100  0.92260100  0.00000000
Cr       Cr   0.76980040  0.41620098  0.13490098  0.00000000
C        C    0.34520040  0.12739890  0.92260090  0.00000000
Cr       Cr   0.21870076  0.35359865  0.13490065  0.00000000
F        F    0.18239872  0.32589865  0.14349865  0.00000000
C        C    0.29520036  0.21780003  0.92260003  0.00000000
Cr       Cr   0.28129881  0.41619867  0.13489867  0.00000000
C        C    0.20479829  0.12739799  0.92259999  0.00000000
Cr       Cr   0.21869884  0.86509865  0.58379865  0.00000000
F        F    0.18240088  0.85649965  0.53889965  0.00000000
C        C    0.29520044  0.07739887  0.87260087  0.00000000
Cr       Cr   0.28130079  0.86509863  0.64640063  0.00000000
C        C    0.20479851  0.07739891  0.78219891  0.00000000
Cr       Cr   0.71870279  0.13489968  0.86509968  0.00000000
C        C    0.79520331  0.92259986  0.07740186  0.00000000
Cr       Cr   0.78130084  0.13489964  0.86509964  0.00000000
C        C    0.70480124  0.92259892  0.07740092  0.00000000
Cr       Cr   0.71870081  0.58379862  0.35360062  0.00000000
F        F    0.68240082  0.53889959  0.32589759  0.00000000
C        C    0.79520309  0.87260084  0.21780084  0.00000000
Cr       Cr   0.78130276  0.64639866  0.41620066  0.00000000
C        C    0.70480116  0.78219978  0.12739978  0.00000000
Cr       Cr   0.71870081  0.13490117  0.35360117  0.00000000
C        C    0.79520309  0.92260089  0.21780089  0.00000000
Cr       Cr   0.78130276  0.13490315  0.41620115  0.00000000
F        F    0.81760072  0.14349915  0.46109915  0.00000000
C        C    0.70480116  0.92259993  0.12739993  0.00000000
Cr       Cr   0.78130084  0.64640015  0.86510015  0.00000000
C        C    0.70480124  0.78220077  0.07740077  0.00000000
Cr       Cr   0.71870279  0.58380213  0.86510013  0.00000000
F        F    0.68240078  0.53890010  0.85650010  0.00000000
C        C    0.79520331  0.87260181  0.07740181  0.00000000
Cr       Cr   0.23020120  0.64639888  0.86509888  0.00000000
F        F    0.21300120  0.67410092  0.85649892  0.00000000
C        C    0.65480120  0.78219980  0.07739980  0.00000000
Cr       Cr   0.23020120  0.58380082  0.86509882  0.00000000
C        C    0.65480120  0.87259990  0.07739990  0.00000000
Cr       Cr   0.26980115  0.13489986  0.41619786  0.00000000
C        C    0.84520127  0.92259984  0.12739984  0.00000000
Cr       Cr   0.26980125  0.13489984  0.35359984  0.00000000
F        F    0.28700131  0.14349984  0.32589784  0.00000000
C        C    0.84520113  0.92259986  0.21779986  0.00000000
Cr       Cr   0.15460292  0.65460096  0.00000096  0.00000000
O        O    0.19300295  0.69300098  0.00000098  0.00000000
F        F    0.11500089  0.61499995  0.99999995  0.00000000
Cr       Cr   0.34540052  0.00000026  0.34540026  0.00000000
O        O    0.30700055  0.00000028  0.30700028  0.00000000
F        F    0.38500049  0.00000025  0.38500025  0.00000000
Cr       Cr   0.34540108  0.34539904  0.50000104  0.00000000
O        O    0.30700105  0.30700102  0.49999902  0.00000000
Cr       Cr   0.15460048  0.49999924  0.65460124  0.00000000
O        O    0.19300065  0.50000132  0.69299932  0.00000000
Cr       Cr   0.65460052  0.00000021  0.50000021  0.00000000
O        O    0.69300055  0.00000008  0.50000008  0.00000000
F        F    0.61500249  0.00000083  0.50000083  0.00000000
Cr       Cr   0.65460028  0.65459979  0.65459979  0.00000000
O        O    0.69300025  0.69299982  0.69299982  0.00000000
Cr       Cr   0.84539868  0.49999899  0.99999899  0.00000000
O        O    0.80700265  0.50000102  0.00000102  0.00000000
F        F    0.88500071  0.50000097  0.00000097  0.00000000
Cr       Cr   0.84539812  0.34539901  0.34539901  0.00000000
O        O    0.80700215  0.30700088  0.30700088  0.00000000
Cr       Cr   0.50000065  0.49999957  0.34539977  0.00000000
O        O    0.50000071  0.49999966  0.30699966  0.00000000
Cr       Cr   0.00000280  0.34540075  0.00000075  0.00000000
O        O    0.00000280  0.30700071  0.00000071  0.00000000
F        F    0.00000280  0.38499978  0.00000178  0.00000000
Cr       Cr   0.50000095  0.00000063  0.65460063  0.00000000
O        O    0.50000089  0.99999864  0.69299864  0.00000000
F        F    0.50000102  0.99999862  0.61500062  0.00000000
Cr       Cr   0.00000080  0.65460045  0.50000065  0.00000000
O        O    0.00000080  0.69299859  0.49999859  0.00000000
Cr       Cr   0.84539868  0.34539884  0.99999884  0.00000000
O        O    0.80700265  0.30700082  0.00000082  0.00000000
Cr       Cr   0.65460028  0.00000014  0.65460014  0.00000000
O        O    0.69300025  0.00000012  0.69300012  0.00000000
Cr       Cr   0.65460052  0.65459966  0.49999986  0.00000000
O        O    0.69300055  0.69299978  0.49999978  0.00000000
F        F    0.61500249  0.61500105  0.50000045  0.00000000
Cr       Cr   0.84539812  0.49999896  0.34539916  0.00000000
O        O    0.80700215  0.50000108  0.30700108  0.00000000
F        F    0.88500009  0.50000035  0.38499975  0.00000000
Cr       Cr   0.34540108  0.00000069  0.50000069  0.00000000
O        O    0.30700105  0.99999872  0.49999872  0.00000000
Cr       Cr   0.34540052  0.34539961  0.34539961  0.00000000
O        O    0.30700055  0.30699958  0.30699958  0.00000000
F        F    0.38500049  0.38499963  0.38499963  0.00000000
Cr       Cr   0.15460292  0.50000081  0.00000081  0.00000000
O        O    0.19300295  0.50000078  0.00000078  0.00000000
Cr       Cr   0.15460048  0.65460039  0.65460039  0.00000000
O        O    0.19300065  0.69299852  0.69299852  0.00000000
F        F    0.11500131  0.61499977  0.61499977  0.00000000
Cr       Cr   0.50000095  0.49999913  0.65460113  0.00000000
O        O    0.50000089  0.50000114  0.69299914  0.00000000
F        F    0.50000102  0.50000112  0.61500112  0.00000000
Cr       Cr   0.00000280  0.65460105  0.00000105  0.00000000
O        O    0.00000280  0.69300109  0.00000109  0.00000000
Cr       Cr   0.50000065  0.00000027  0.34540027  0.00000000
O        O    0.50000071  0.00000016  0.30700016  0.00000000
Cr       Cr   0.00000080  0.34539935  0.50000135  0.00000000
O        O    0.00000080  0.30700121  0.49999921  0.00000000
F        F    0.00000080  0.38499998  0.49999998  0.00000000
O        O    0.34080025  0.17039997  0.01119977  0.00000000
O        O    0.15920060  0.98880006  0.82959986  0.00000000
O        O    0.15920060  0.17040004  0.82960004  0.00000000
O        O    0.34080055  0.17039993  0.82959993  0.00000000
O        O    0.65920135  0.82959983  0.98879783  0.00000000
O        O    0.84080120  0.01120094  0.17039894  0.00000000
O        O    0.65920105  0.82959987  0.17039987  0.00000000
O        O    0.84080120  0.82959876  0.17039876  0.00000000
F        F    0.74999870  0.06520030  0.93479890  0.00000000
F        F    0.25000290  0.93480120  0.06520120  0.00000000
C        C    0.49120078  0.26739962  0.25859922  0.00000000
C        C    0.46459879  0.27239704  0.23699784  0.00000000
C        C    0.32320236  0.11390141  0.93710041  0.00000000
C        C    0.34380032  0.12709941  0.97090041  0.00000000
C        C    0.42959820  0.15739882  0.08699822  0.00000000
C        C    0.48420015  0.16330082  0.14749958  0.00000000
C        C    0.40160023  0.15519993  0.05679893  0.00000000
H        H    0.50494294  0.16315619  0.16809619  0.00000000
C        C    0.00880083  0.74140008  0.73259968  0.00000000
C        C    0.03539966  0.76299889  0.72759969  0.00000000
C        C    0.17680132  0.06289993  0.88609893  0.00000000
C        C    0.15619933  0.02909891  0.87289991  0.00000000
C        C    0.07040091  0.91299944  0.84259884  0.00000000
C        C    0.01580151  0.85250105  0.83669981  0.00000000
C        C    0.09840133  0.94320085  0.84479985  0.00000000
H        H    0.99506106  0.83190520  0.83684520  0.00000000
C        C    0.00880117  0.26739862  0.77620062  0.00000000
C        C    0.03540114  0.27239861  0.80779861  0.00000000
C        C    0.17680148  0.11390147  0.79069947  0.00000000
C        C    0.15619947  0.12709949  0.78329949  0.00000000
C        C    0.07040109  0.15739896  0.72780096  0.00000000
C        C    0.01580177  0.16330101  0.67910101  0.00000000
C        C    0.09840147  0.15520005  0.75360005  0.00000000
H        H    0.99506054  0.16315500  0.65821500  0.00000000
C        C    0.49119882  0.22379788  0.73259988  0.00000000
C        C    0.46460081  0.19219986  0.72759986  0.00000000
C        C    0.32320244  0.20930099  0.88609899  0.00000000
C        C    0.34380048  0.21669998  0.87289998  0.00000000
C        C    0.42959860  0.27219698  0.84259898  0.00000000
C        C    0.48420065  0.32090000  0.83670000  0.00000000
C        C    0.40160057  0.24639997  0.84479997  0.00000000
H        H    0.50494067  0.34178501  0.83684501  0.00000000
C        C    0.00880117  0.74140109  0.77620109  0.00000000
C        C    0.03540114  0.76300110  0.80779910  0.00000000
C        C    0.17680148  0.06289941  0.79069941  0.00000000
C        C    0.15619947  0.02909939  0.78329939  0.00000000
C        C    0.07040109  0.91300152  0.72780072  0.00000000
C        C    0.01580177  0.85250010  0.67910070  0.00000000
C        C    0.09840147  0.94320083  0.75359983  0.00000000
H        H    0.99506054  0.83190487  0.65821467  0.00000000
C        C    0.00880083  0.26740021  0.73260021  0.00000000
C        C    0.03539966  0.27240020  0.72760020  0.00000000
C        C    0.17680132  0.11390099  0.88609899  0.00000000
C        C    0.15619933  0.12710001  0.87290001  0.00000000
C        C    0.07040091  0.15740108  0.84259908  0.00000000
C        C    0.01580151  0.16330012  0.83670012  0.00000000
C        C    0.09840133  0.15520007  0.84480007  0.00000000
H        H    0.99506106  0.16315453  0.83684453  0.00000000
C        C    0.49120078  0.22380018  0.25860018  0.00000000
C        C    0.46459879  0.19220076  0.23699876  0.00000000
C        C    0.32320236  0.20930050  0.93710050  0.00000000
C        C    0.34380032  0.21670050  0.97090050  0.00000000
C        C    0.42959820  0.27219913  0.08699833  0.00000000
C        C    0.48420015  0.32089914  0.14749974  0.00000000
C        C    0.40160023  0.24640002  0.05679902  0.00000000
H        H    0.50494294  0.34178557  0.16809537  0.00000000
C        C    0.49119882  0.26739992  0.73259992  0.00000000
C        C    0.46460081  0.27239994  0.72759994  0.00000000
C        C    0.32320244  0.11390090  0.88609890  0.00000000
C        C    0.34380048  0.12709990  0.87289990  0.00000000
C        C    0.42959860  0.15740087  0.84259887  0.00000000
C        C    0.48420065  0.16329984  0.83669984  0.00000000
C        C    0.40160057  0.15519988  0.84479988  0.00000000
H        H    0.50494067  0.16315483  0.83684483  0.00000000
C        C    0.96519840  0.22379799  0.73259999  0.00000000
C        C    0.95520040  0.19220056  0.72760056  0.00000000
C        C    0.27220040  0.20930052  0.88609852  0.00000000
C        C    0.24580040  0.21670054  0.87290054  0.00000000
C        C    0.18520120  0.27219923  0.84260123  0.00000000
C        C    0.17339980  0.32089926  0.83669926  0.00000000
C        C    0.18960140  0.24640010  0.84480010  0.00000000
H        H    0.17368920  0.34178360  0.83684360  0.00000000
C        C    0.53480001  0.26740000  0.25859960  0.00000000
C        C    0.54480006  0.27239999  0.23700079  0.00000000
C        C    0.22780228  0.11390096  0.93709996  0.00000000
C        C    0.25420025  0.12709997  0.97090097  0.00000000
C        C    0.31480211  0.15740099  0.08700039  0.00000000
C        C    0.32660003  0.16330000  0.14749876  0.00000000
C        C    0.31040016  0.15519998  0.05679898  0.00000000
H        H    0.32631159  0.16315480  0.16809480  0.00000000
C        C    0.96519840  0.74139991  0.73259951  0.00000000
C        C    0.95520040  0.76299934  0.72760014  0.00000000
C        C    0.27220040  0.06289938  0.88609838  0.00000000
C        C    0.24580040  0.02909936  0.87290036  0.00000000
C        C    0.18520120  0.91300147  0.84260087  0.00000000
C        C    0.17339980  0.85250004  0.83669880  0.00000000
C        C    0.18960140  0.94320080  0.84479980  0.00000000
H        H    0.17368920  0.83190410  0.83684410  0.00000000
C        C    0.53480079  0.26739990  0.77620190  0.00000000
C        C    0.54480074  0.27239991  0.80779991  0.00000000
C        C    0.22780252  0.11390094  0.79069894  0.00000000
C        C    0.25420055  0.12709993  0.78329993  0.00000000
C        C    0.31480269  0.15740091  0.72780291  0.00000000
C        C    0.32660077  0.16329990  0.67909990  0.00000000
C        C    0.31040064  0.15519992  0.75359992  0.00000000
H        H    0.32631081  0.16315490  0.65821490  0.00000000
C        C    0.46520159  0.73259980  0.74139980  0.00000000
C        C    0.45520154  0.72759981  0.76299981  0.00000000
C        C    0.77219932  0.88609884  0.06289884  0.00000000
C        C    0.74580135  0.87289983  0.02909983  0.00000000
C        C    0.68519949  0.84259881  0.91299881  0.00000000
C        C    0.67340157  0.83669980  0.85249980  0.00000000
C        C    0.68960144  0.84479982  0.94319982  0.00000000
H        H    0.67369001  0.83684500  0.83190438  0.00000000
C        C    0.03480240  0.25860069  0.26740069  0.00000000
C        C    0.04480160  0.23699926  0.27239926  0.00000000
C        C    0.72780120  0.93709992  0.11389992  0.00000000
C        C    0.75420120  0.97089894  0.12709894  0.00000000
C        C    0.81480120  0.08700003  0.15740003  0.00000000
C        C    0.82660120  0.14750008  0.16330008  0.00000000
C        C    0.81039920  0.05679900  0.15519900  0.00000000
H        H    0.82631240  0.16809701  0.16315639  0.00000000
C        C    0.46520081  0.73259990  0.22379990  0.00000000
C        C    0.45520086  0.72759989  0.19219789  0.00000000
C        C    0.77219908  0.88609886  0.20929886  0.00000000
C        C    0.74580105  0.87289987  0.21669787  0.00000000
C        C    0.68519891  0.84259889  0.27219889  0.00000000
C        C    0.67340083  0.83669990  0.32089990  0.00000000
C        C    0.68960096  0.84479988  0.24639988  0.00000000
H        H    0.67369079  0.83684490  0.34178690  0.00000000
C        C    0.03480240  0.77620021  0.26740021  0.00000000
C        C    0.04480160  0.80780084  0.27239884  0.00000000
C        C    0.72780120  0.79069978  0.11389978  0.00000000
C        C    0.75420120  0.78330076  0.12709876  0.00000000
C        C    0.81480120  0.72779967  0.15739967  0.00000000
C        C    0.82660120  0.67909962  0.16329962  0.00000000
C        C    0.81039920  0.75359870  0.15519870  0.00000000
H        H    0.82631240  0.65821489  0.16315689  0.00000000
C        C    0.99120043  0.25860031  0.22379911  0.00000000
C        C    0.96460046  0.23699890  0.19219850  0.00000000
C        C    0.82320112  0.93709989  0.20929989  0.00000000
C        C    0.84380113  0.97089791  0.21669991  0.00000000
C        C    0.92960111  0.08699998  0.27219998  0.00000000
C        C    0.98419907  0.14749902  0.32089902  0.00000000
C        C    0.90159913  0.05679897  0.24639897  0.00000000
H        H    0.00494168  0.16809734  0.34178534  0.00000000
C        C    0.50880278  0.73260088  0.26740088  0.00000000
C        C    0.53540079  0.72759786  0.27239986  0.00000000
C        C    0.67679916  0.88609890  0.11389890  0.00000000
C        C    0.65620112  0.87289890  0.12709890  0.00000000
C        C    0.57040300  0.84260093  0.15740093  0.00000000
C        C    0.51580095  0.83669896  0.16330096  0.00000000
C        C    0.59840103  0.84479992  0.15519992  0.00000000
H        H    0.49506093  0.83684597  0.16315597  0.00000000
C        C    0.50880082  0.77620002  0.74139882  0.00000000
C        C    0.53540281  0.80780064  0.76300024  0.00000000
C        C    0.67679924  0.79069880  0.06289880  0.00000000
C        C    0.65620128  0.78329880  0.02910080  0.00000000
C        C    0.57040340  0.72780077  0.91300077  0.00000000
C        C    0.51580145  0.67909974  0.85249974  0.00000000
C        C    0.59840137  0.75359978  0.94319978  0.00000000
H        H    0.49505867  0.65821502  0.83190302  0.00000000
C        C    0.99120117  0.73259959  0.26739959  0.00000000
C        C    0.96460114  0.72759860  0.27240060  0.00000000
C        C    0.82320128  0.88609981  0.11389981  0.00000000
C        C    0.84380127  0.87289979  0.12709979  0.00000000
C        C    0.92960129  0.84259972  0.15739972  0.00000000
C        C    0.98419933  0.83669768  0.16329968  0.00000000
C        C    0.90159927  0.84479873  0.15519873  0.00000000
H        H    0.00494054  0.83684496  0.16315496  0.00000000
C        C    0.50880278  0.77620092  0.26740092  0.00000000
C        C    0.53540079  0.80780194  0.27239994  0.00000000
C        C    0.67679916  0.79069881  0.11389881  0.00000000
C        C    0.65620112  0.78330081  0.12709881  0.00000000
C        C    0.57040300  0.72780082  0.15740082  0.00000000
C        C    0.51580095  0.67910080  0.16330080  0.00000000
C        C    0.59840103  0.75359983  0.15519983  0.00000000
H        H    0.49506093  0.65821379  0.16315579  0.00000000
C        C    0.50880082  0.73259978  0.74139978  0.00000000
C        C    0.53540281  0.72760116  0.76300116  0.00000000
C        C    0.67679924  0.88609889  0.06289889  0.00000000
C        C    0.65620128  0.87290089  0.02910089  0.00000000
C        C    0.57040340  0.84260088  0.91300088  0.00000000
C        C    0.51580145  0.83669990  0.85249990  0.00000000
C        C    0.59840137  0.84479987  0.94319987  0.00000000
H        H    0.49505867  0.83684282  0.83190220  0.00000000
C        C    0.99120117  0.25860012  0.26740012  0.00000000
C        C    0.96460114  0.23700111  0.27240111  0.00000000
C        C    0.82320128  0.93709987  0.11389987  0.00000000
C        C    0.84380127  0.97089989  0.12709989  0.00000000
C        C    0.92960129  0.08699996  0.15739996  0.00000000
C        C    0.98419933  0.14749999  0.16329999  0.00000000
C        C    0.90159927  0.05679895  0.15519895  0.00000000
H        H    0.00494054  0.16809491  0.16315429  0.00000000
C        C    0.99120043  0.73259958  0.22379958  0.00000000
C        C    0.96460046  0.72760099  0.19219899  0.00000000
C        C    0.82320112  0.88609983  0.20929983  0.00000000
C        C    0.84380113  0.87290181  0.21669981  0.00000000
C        C    0.92960111  0.84259974  0.27219974  0.00000000
C        C    0.98419907  0.83669871  0.32089871  0.00000000
C        C    0.90159913  0.84479875  0.24639875  0.00000000
H        H    0.00494168  0.83684301  0.34178501  0.00000000
C        C    0.47700156  0.23849980  0.26309980  0.00000000
C        C    0.02300120  0.73690008  0.76150008  0.00000000
C        C    0.02300120  0.28609962  0.76149962  0.00000000
C        C    0.47700084  0.23849990  0.71389990  0.00000000
C        C    0.97540116  0.73690010  0.76150010  0.00000000
C        C    0.97540244  0.23850140  0.71390140  0.00000000
C        C    0.52460080  0.23850058  0.26310058  0.00000000
C        C    0.52460080  0.28609992  0.76149992  0.00000000
C        C    0.97540116  0.23849961  0.76149961  0.00000000
C        C    0.52460080  0.28609922  0.26309962  0.00000000
C        C    0.97540244  0.73690049  0.71390089  0.00000000
C        C    0.52460080  0.23849988  0.76149988  0.00000000
C        C    0.47540080  0.76149882  0.73690002  0.00000000
C        C    0.02460044  0.26310010  0.23850130  0.00000000
C        C    0.47540080  0.71390088  0.23850088  0.00000000
C        C    0.02459996  0.76149900  0.28609900  0.00000000
C        C    0.97700040  0.26309912  0.23850032  0.00000000
C        C    0.52300076  0.76149990  0.28609990  0.00000000
C        C    0.52300004  0.76150000  0.73690120  0.00000000
C        C    0.97700040  0.71390078  0.23850078  0.00000000
C        C    0.47540080  0.76149892  0.23850092  0.00000000
C        C    0.47540080  0.71390098  0.73690098  0.00000000
C        C    0.02459996  0.26309951  0.28609951  0.00000000
C        C    0.02460044  0.76149979  0.23850179  0.00000000
H        H    0.54230006  0.77114999  0.73090619  0.00000000
H        H    0.19639949  0.59819881  0.66806281  0.00000000
H        H    0.95770040  0.26909364  0.22884984  0.00000000
H        H    0.30360520  0.33193803  0.40180203  0.00000000
H        H    0.95770040  0.68860626  0.22885026  0.00000000
H        H    0.30360520  0.97166567  0.40180167  0.00000000
H        H    0.54230074  0.77114991  0.31139391  0.00000000
H        H    0.19639891  0.59819889  0.02833489  0.00000000
H        H    0.04024247  0.26909259  0.22884879  0.00000000
H        H    0.93013890  0.33193915  0.40180315  0.00000000
H        H    0.04024493  0.77114951  0.31139351  0.00000000
H        H    0.93013670  0.59819805  0.02833405  0.00000000
H        H    0.45975680  0.77114934  0.73090554  0.00000000
H        H    0.56986499  0.59819819  0.66806219  0.00000000
H        H    0.45975680  0.68860586  0.22884986  0.00000000
H        H    0.56986461  0.97166601  0.40180201  0.00000000
H        H    0.04024247  0.77114929  0.22884929  0.00000000
H        H    0.93013890  0.59819862  0.40180242  0.00000000
H        H    0.45975680  0.68860646  0.73090646  0.00000000
H        H    0.56986499  0.97166556  0.66806156  0.00000000
H        H    0.04024493  0.26909401  0.31139401  0.00000000
H        H    0.93013670  0.33193778  0.02833378  0.00000000
H        H    0.45975680  0.77114994  0.22884994  0.00000000
H        H    0.56986461  0.59819784  0.40180164  0.00000000
H        H    0.54024480  0.22885076  0.26909276  0.00000000
H        H    0.43013661  0.40180001  0.33193721  0.00000000
H        H    0.95975913  0.73090811  0.77115011  0.00000000
H        H    0.06986350  0.66806135  0.59819855  0.00000000
H        H    0.54024480  0.31139394  0.77114994  0.00000000
H        H    0.43013699  0.02833469  0.59819869  0.00000000
H        H    0.95975647  0.22884959  0.68860559  0.00000000
H        H    0.06986490  0.40180075  0.97166475  0.00000000
H        H    0.04230120  0.73090706  0.77114906  0.00000000
H        H    0.69639640  0.66806117  0.59819837  0.00000000
H        H    0.45770086  0.22884989  0.68860589  0.00000000
H        H    0.80360269  0.40180091  0.97166491  0.00000000
H        H    0.45770154  0.22884981  0.26909181  0.00000000
H        H    0.80360211  0.40180099  0.33193819  0.00000000
H        H    0.04230120  0.31139264  0.77114864  0.00000000
H        H    0.69639640  0.02833473  0.59819873  0.00000000
H        H    0.54024480  0.22884986  0.77114986  0.00000000
H        H    0.43013699  0.40180106  0.59819906  0.00000000
H        H    0.54024480  0.31139304  0.26909184  0.00000000
H        H    0.43013661  0.02833584  0.33193784  0.00000000
H        H    0.95975647  0.73090629  0.68860509  0.00000000
H        H    0.06986490  0.66806302  0.97166502  0.00000000
H        H    0.95975913  0.22884961  0.77114961  0.00000000
H        H    0.06986350  0.40180128  0.59819928  0.00000000
