data_MOF-210

_cell_length_a  50.74500000
_cell_length_b  50.74500000
_cell_length_c  194.25600000
_cell_angle_alpha  90.00000000
_cell_angle_beta  90.00000000
_cell_angle_gamma  120.00000000


_symmetry_space_group_name_Hall ' P 1'
_symmetry_space_group_name_H-M  'P 1'
_symmetry_Int_Tables_number     1

loop_
_atom_site_label
_atom_site_type_symbol
_atom_site_fract_x
_atom_site_fract_y
_atom_site_fract_z
_atom_site_charge
Zn       Zn   0.46333333  0.38866667  0.47036667  0.00000000
Zn       Zn   0.74133333  0.79666667  0.86296667  0.00000000
Zn       Zn   0.13000000  0.72200000  0.80370000  0.00000000
Zn       Zn   0.53666667  0.61133333  0.52963333  0.00000000
Zn       Zn   0.07466667  0.46333333  0.52963333  0.00000000
Zn       Zn   0.27800000  0.40800000  0.80370000  0.00000000
Zn       Zn   0.40800000  0.13000000  0.19630000  0.00000000
Zn       Zn   0.79666667  0.05533333  0.13703333  0.00000000
Zn       Zn   0.87000000  0.27800000  0.19630000  0.00000000
Zn       Zn   0.94466667  0.74133333  0.13703333  0.00000000
Zn       Zn   0.25866667  0.20333333  0.13703333  0.00000000
Zn       Zn   0.05533333  0.25866667  0.86296667  0.00000000
Zn       Zn   0.72200000  0.59200000  0.19630000  0.00000000
Zn       Zn   0.61133333  0.07466667  0.47036667  0.00000000
Zn       Zn   0.59200000  0.87000000  0.80370000  0.00000000
Zn       Zn   0.38866667  0.92533333  0.52963333  0.00000000
Zn       Zn   0.20333333  0.94466667  0.86296667  0.00000000
Zn       Zn   0.92533333  0.53666667  0.47036667  0.00000000
Zn       Zn   0.40233333  0.35866667  0.47896667  0.00000000
Zn       Zn   0.71033333  0.73566667  0.85436667  0.00000000
Zn       Zn   0.06900000  0.69200000  0.81230000  0.00000000
Zn       Zn   0.59766667  0.64133333  0.52103333  0.00000000
Zn       Zn   0.04366667  0.40233333  0.52103333  0.00000000
Zn       Zn   0.30800000  0.37700000  0.81230000  0.00000000
Zn       Zn   0.37700000  0.06900000  0.18770000  0.00000000
Zn       Zn   0.73566667  0.02533333  0.14563333  0.00000000
Zn       Zn   0.93100000  0.30800000  0.18770000  0.00000000
Zn       Zn   0.97466667  0.71033333  0.14563333  0.00000000
Zn       Zn   0.28966667  0.26433333  0.14563333  0.00000000
Zn       Zn   0.02533333  0.28966667  0.85436667  0.00000000
Zn       Zn   0.69200000  0.62300000  0.18770000  0.00000000
Zn       Zn   0.64133333  0.04366667  0.47896667  0.00000000
Zn       Zn   0.62300000  0.93100000  0.81230000  0.00000000
Zn       Zn   0.35866667  0.95633333  0.52103333  0.00000000
Zn       Zn   0.26433333  0.97466667  0.85436667  0.00000000
Zn       Zn   0.95633333  0.59766667  0.47896667  0.00000000
Zn       Zn   0.40033333  0.36166667  0.46276667  0.00000000
Zn       Zn   0.70533333  0.73366667  0.87056667  0.00000000
Zn       Zn   0.06700000  0.69500000  0.79610000  0.00000000
Zn       Zn   0.59966667  0.63833333  0.53723333  0.00000000
Zn       Zn   0.03866667  0.40033333  0.53723333  0.00000000
Zn       Zn   0.30500000  0.37200000  0.79610000  0.00000000
Zn       Zn   0.37200000  0.06700000  0.20390000  0.00000000
Zn       Zn   0.73366667  0.02833333  0.12943333  0.00000000
Zn       Zn   0.93300000  0.30500000  0.20390000  0.00000000
Zn       Zn   0.97166667  0.70533333  0.12943333  0.00000000
Zn       Zn   0.29466667  0.26633333  0.12943333  0.00000000
Zn       Zn   0.02833333  0.29466667  0.87056667  0.00000000
Zn       Zn   0.69500000  0.62800000  0.20390000  0.00000000
Zn       Zn   0.63833333  0.03866667  0.46276667  0.00000000
Zn       Zn   0.62800000  0.93300000  0.79610000  0.00000000
Zn       Zn   0.36166667  0.96133333  0.53723333  0.00000000
Zn       Zn   0.26633333  0.97166667  0.87056667  0.00000000
Zn       Zn   0.96133333  0.59966667  0.46276667  0.00000000
Zn       Zn   0.41933333  0.31766667  0.46976667  0.00000000
Zn       Zn   0.76833333  0.75266667  0.86356667  0.00000000
Zn       Zn   0.08600000  0.65100000  0.80310000  0.00000000
Zn       Zn   0.58066667  0.68233333  0.53023333  0.00000000
Zn       Zn   0.10166667  0.41933333  0.53023333  0.00000000
Zn       Zn   0.34900000  0.43500000  0.80310000  0.00000000
Zn       Zn   0.43500000  0.08600000  0.19690000  0.00000000
Zn       Zn   0.75266667  0.98433333  0.13643333  0.00000000
Zn       Zn   0.91400000  0.34900000  0.19690000  0.00000000
Zn       Zn   0.01566667  0.76833333  0.13643333  0.00000000
Zn       Zn   0.23166667  0.24733333  0.13643333  0.00000000
Zn       Zn   0.98433333  0.23166667  0.86356667  0.00000000
Zn       Zn   0.65100000  0.56500000  0.19690000  0.00000000
Zn       Zn   0.68233333  0.10166667  0.46976667  0.00000000
Zn       Zn   0.56500000  0.91400000  0.80310000  0.00000000
Zn       Zn   0.31766667  0.89833333  0.53023333  0.00000000
Zn       Zn   0.24733333  0.01566667  0.86356667  0.00000000
Zn       Zn   0.89833333  0.58066667  0.46976667  0.00000000
Zn       Zn   0.44433333  0.36566667  0.58526667  0.00000000
Zn       Zn   0.74533333  0.77766667  0.74806667  0.00000000
Zn       Zn   0.11100000  0.69900000  0.91860000  0.00000000
Zn       Zn   0.55566667  0.63433333  0.41473333  0.00000000
Zn       Zn   0.07866667  0.44433333  0.41473333  0.00000000
Zn       Zn   0.30100000  0.41200000  0.91860000  0.00000000
Zn       Zn   0.41200000  0.11100000  0.08140000  0.00000000
Zn       Zn   0.77766667  0.03233333  0.25193333  0.00000000
Zn       Zn   0.88900000  0.30100000  0.08140000  0.00000000
Zn       Zn   0.96766667  0.74533333  0.25193333  0.00000000
Zn       Zn   0.25466667  0.22233333  0.25193333  0.00000000
Zn       Zn   0.03233333  0.25466667  0.74806667  0.00000000
Zn       Zn   0.69900000  0.58800000  0.08140000  0.00000000
Zn       Zn   0.63433333  0.07866667  0.58526667  0.00000000
Zn       Zn   0.58800000  0.88900000  0.91860000  0.00000000
Zn       Zn   0.36566667  0.92133333  0.41473333  0.00000000
Zn       Zn   0.22233333  0.96766667  0.74806667  0.00000000
Zn       Zn   0.92133333  0.55566667  0.58526667  0.00000000
Zn       Zn   0.38133333  0.32466667  0.59066667  0.00000000
Zn       Zn   0.72333333  0.71466667  0.74266667  0.00000000
Zn       Zn   0.04800000  0.65800000  0.92400000  0.00000000
Zn       Zn   0.61866667  0.67533333  0.40933333  0.00000000
Zn       Zn   0.05666667  0.38133333  0.40933333  0.00000000
Zn       Zn   0.34200000  0.39000000  0.92400000  0.00000000
Zn       Zn   0.39000000  0.04800000  0.07600000  0.00000000
Zn       Zn   0.71466667  0.99133333  0.25733333  0.00000000
Zn       Zn   0.95200000  0.34200000  0.07600000  0.00000000
Zn       Zn   0.00866667  0.72333333  0.25733333  0.00000000
Zn       Zn   0.27666667  0.28533333  0.25733333  0.00000000
Zn       Zn   0.99133333  0.27666667  0.74266667  0.00000000
Zn       Zn   0.65800000  0.61000000  0.07600000  0.00000000
Zn       Zn   0.67533333  0.05666667  0.59066667  0.00000000
Zn       Zn   0.61000000  0.95200000  0.92400000  0.00000000
Zn       Zn   0.32466667  0.94333333  0.40933333  0.00000000
Zn       Zn   0.28533333  0.00866667  0.74266667  0.00000000
Zn       Zn   0.94333333  0.61866667  0.59066667  0.00000000
Zn       Zn   0.41133333  0.29966667  0.58136667  0.00000000
Zn       Zn   0.77833333  0.74466667  0.75196667  0.00000000
Zn       Zn   0.07800000  0.63300000  0.91470000  0.00000000
Zn       Zn   0.58866667  0.70033333  0.41863333  0.00000000
Zn       Zn   0.11166667  0.41133333  0.41863333  0.00000000
Zn       Zn   0.36700000  0.44500000  0.91470000  0.00000000
Zn       Zn   0.44500000  0.07800000  0.08530000  0.00000000
Zn       Zn   0.74466667  0.96633333  0.24803333  0.00000000
Zn       Zn   0.92200000  0.36700000  0.08530000  0.00000000
Zn       Zn   0.03366667  0.77833333  0.24803333  0.00000000
Zn       Zn   0.22166667  0.25533333  0.24803333  0.00000000
Zn       Zn   0.96633333  0.22166667  0.75196667  0.00000000
Zn       Zn   0.63300000  0.55500000  0.08530000  0.00000000
Zn       Zn   0.70033333  0.11166667  0.58136667  0.00000000
Zn       Zn   0.55500000  0.92200000  0.91470000  0.00000000
Zn       Zn   0.29966667  0.88833333  0.41863333  0.00000000
Zn       Zn   0.25533333  0.03366667  0.75196667  0.00000000
Zn       Zn   0.88833333  0.58866667  0.58136667  0.00000000
Zn       Zn   0.39133333  0.34166667  0.57566667  0.00000000
Zn       Zn   0.71633333  0.72466667  0.75766667  0.00000000
Zn       Zn   0.05800000  0.67500000  0.90900000  0.00000000
Zn       Zn   0.60866667  0.65833333  0.42433333  0.00000000
Zn       Zn   0.04966667  0.39133333  0.42433333  0.00000000
Zn       Zn   0.32500000  0.38300000  0.90900000  0.00000000
Zn       Zn   0.38300000  0.05800000  0.09100000  0.00000000
Zn       Zn   0.72466667  0.00833333  0.24233333  0.00000000
Zn       Zn   0.94200000  0.32500000  0.09100000  0.00000000
Zn       Zn   0.99166667  0.71633333  0.24233333  0.00000000
Zn       Zn   0.28366667  0.27533333  0.24233333  0.00000000
Zn       Zn   0.00833333  0.28366667  0.75766667  0.00000000
Zn       Zn   0.67500000  0.61700000  0.09100000  0.00000000
Zn       Zn   0.65833333  0.04966667  0.57566667  0.00000000
Zn       Zn   0.61700000  0.94200000  0.90900000  0.00000000
Zn       Zn   0.34166667  0.95033333  0.42433333  0.00000000
Zn       Zn   0.27533333  0.99166667  0.75766667  0.00000000
Zn       Zn   0.95033333  0.60866667  0.57566667  0.00000000
Zn       Zn   0.26333333  0.28966667  0.35466667  0.00000000
Zn       Zn   0.64033333  0.59666667  0.97866667  0.00000000
Zn       Zn   0.93000000  0.62300000  0.68800000  0.00000000
Zn       Zn   0.73666667  0.71033333  0.64533333  0.00000000
Zn       Zn   0.97366667  0.26333333  0.64533333  0.00000000
Zn       Zn   0.37700000  0.30700000  0.68800000  0.00000000
Zn       Zn   0.30700000  0.93000000  0.31200000  0.00000000
Zn       Zn   0.59666667  0.95633333  0.02133333  0.00000000
Zn       Zn   0.07000000  0.37700000  0.31200000  0.00000000
Zn       Zn   0.04366667  0.64033333  0.02133333  0.00000000
Zn       Zn   0.35966667  0.40333333  0.02133333  0.00000000
Zn       Zn   0.95633333  0.35966667  0.97866667  0.00000000
Zn       Zn   0.62300000  0.69300000  0.31200000  0.00000000
Zn       Zn   0.71033333  0.97366667  0.35466667  0.00000000
Zn       Zn   0.69300000  0.07000000  0.68800000  0.00000000
Zn       Zn   0.28966667  0.02633333  0.64533333  0.00000000
Zn       Zn   0.40333333  0.04366667  0.97866667  0.00000000
Zn       Zn   0.02633333  0.73666667  0.35466667  0.00000000
Zn       Zn   0.20533333  0.25966667  0.36306667  0.00000000
Zn       Zn   0.61233333  0.53866667  0.97026667  0.00000000
Zn       Zn   0.87200000  0.59300000  0.69640000  0.00000000
Zn       Zn   0.79466667  0.74033333  0.63693333  0.00000000
Zn       Zn   0.94566667  0.20533333  0.63693333  0.00000000
Zn       Zn   0.40700000  0.27900000  0.69640000  0.00000000
Zn       Zn   0.27900000  0.87200000  0.30360000  0.00000000
Zn       Zn   0.53866667  0.92633333  0.02973333  0.00000000
Zn       Zn   0.12800000  0.40700000  0.30360000  0.00000000
Zn       Zn   0.07366667  0.61233333  0.02973333  0.00000000
Zn       Zn   0.38766667  0.46133333  0.02973333  0.00000000
Zn       Zn   0.92633333  0.38766667  0.97026667  0.00000000
Zn       Zn   0.59300000  0.72100000  0.30360000  0.00000000
Zn       Zn   0.74033333  0.94566667  0.36306667  0.00000000
Zn       Zn   0.72100000  0.12800000  0.69640000  0.00000000
Zn       Zn   0.25966667  0.05433333  0.63693333  0.00000000
Zn       Zn   0.46133333  0.07366667  0.97026667  0.00000000
Zn       Zn   0.05433333  0.79466667  0.36306667  0.00000000
Zn       Zn   0.24833333  0.23366667  0.36336667  0.00000000
Zn       Zn   0.68133333  0.58166667  0.96996667  0.00000000
Zn       Zn   0.91500000  0.56700000  0.69670000  0.00000000
Zn       Zn   0.75166667  0.76633333  0.63663333  0.00000000
Zn       Zn   0.01466667  0.24833333  0.63663333  0.00000000
Zn       Zn   0.43300000  0.34800000  0.69670000  0.00000000
Zn       Zn   0.34800000  0.91500000  0.30330000  0.00000000
Zn       Zn   0.58166667  0.90033333  0.03003333  0.00000000
Zn       Zn   0.08500000  0.43300000  0.30330000  0.00000000
Zn       Zn   0.09966667  0.68133333  0.03003333  0.00000000
Zn       Zn   0.31866667  0.41833333  0.03003333  0.00000000
Zn       Zn   0.90033333  0.31866667  0.96996667  0.00000000
Zn       Zn   0.56700000  0.65200000  0.30330000  0.00000000
Zn       Zn   0.76633333  0.01466667  0.36336667  0.00000000
Zn       Zn   0.65200000  0.08500000  0.69670000  0.00000000
Zn       Zn   0.23366667  0.98533333  0.63663333  0.00000000
Zn       Zn   0.41833333  0.09966667  0.96996667  0.00000000
Zn       Zn   0.98533333  0.75166667  0.36336667  0.00000000
Zn       Zn   0.26633333  0.29466667  0.37026667  0.00000000
Zn       Zn   0.63833333  0.59966667  0.96306667  0.00000000
Zn       Zn   0.93300000  0.62800000  0.70360000  0.00000000
Zn       Zn   0.73366667  0.70533333  0.62973333  0.00000000
Zn       Zn   0.97166667  0.26633333  0.62973333  0.00000000
Zn       Zn   0.37200000  0.30500000  0.70360000  0.00000000
Zn       Zn   0.30500000  0.93300000  0.29640000  0.00000000
Zn       Zn   0.59966667  0.96133333  0.03693333  0.00000000
Zn       Zn   0.06700000  0.37200000  0.29640000  0.00000000
Zn       Zn   0.03866667  0.63833333  0.03693333  0.00000000
Zn       Zn   0.36166667  0.40033333  0.03693333  0.00000000
Zn       Zn   0.96133333  0.36166667  0.96306667  0.00000000
Zn       Zn   0.62800000  0.69500000  0.29640000  0.00000000
Zn       Zn   0.70533333  0.97166667  0.37026667  0.00000000
Zn       Zn   0.69500000  0.06700000  0.70360000  0.00000000
Zn       Zn   0.29466667  0.02833333  0.62973333  0.00000000
Zn       Zn   0.40033333  0.03866667  0.96306667  0.00000000
Zn       Zn   0.02833333  0.73366667  0.37026667  0.00000000
O        O    0.42163333  0.35676667  0.47046667  0.00000000
O        O    0.73153333  0.75496667  0.86286667  0.00000000
O        O    0.08830000  0.69010000  0.80380000  0.00000000
O        O    0.57836667  0.64323333  0.52953333  0.00000000
O        O    0.06486667  0.42163333  0.52953333  0.00000000
O        O    0.30990000  0.39820000  0.80380000  0.00000000
O        O    0.39820000  0.08830000  0.19620000  0.00000000
O        O    0.75496667  0.02343333  0.13713333  0.00000000
O        O    0.91170000  0.30990000  0.19620000  0.00000000
O        O    0.97656667  0.73153333  0.13713333  0.00000000
O        O    0.26846667  0.24503333  0.13713333  0.00000000
O        O    0.02343333  0.26846667  0.86286667  0.00000000
O        O    0.69010000  0.60180000  0.19620000  0.00000000
O        O    0.64323333  0.06486667  0.47046667  0.00000000
O        O    0.60180000  0.91170000  0.80380000  0.00000000
O        O    0.35676667  0.93513333  0.52953333  0.00000000
O        O    0.24503333  0.97656667  0.86286667  0.00000000
O        O    0.93513333  0.57836667  0.47046667  0.00000000
O        O    0.40703333  0.33286667  0.58326667  0.00000000
O        O    0.74083333  0.74036667  0.75006667  0.00000000
O        O    0.07370000  0.66620000  0.91660000  0.00000000
O        O    0.59296667  0.66713333  0.41673333  0.00000000
O        O    0.07416667  0.40703333  0.41673333  0.00000000
O        O    0.33380000  0.40750000  0.91660000  0.00000000
O        O    0.40750000  0.07370000  0.08340000  0.00000000
O        O    0.74036667  0.99953333  0.24993333  0.00000000
O        O    0.92630000  0.33380000  0.08340000  0.00000000
O        O    0.00046667  0.74083333  0.24993333  0.00000000
O        O    0.25916667  0.25963333  0.24993333  0.00000000
O        O    0.99953333  0.25916667  0.75006667  0.00000000
O        O    0.66620000  0.59250000  0.08340000  0.00000000
O        O    0.66713333  0.07416667  0.58326667  0.00000000
O        O    0.59250000  0.92630000  0.91660000  0.00000000
O        O    0.33286667  0.92583333  0.41673333  0.00000000
O        O    0.25963333  0.00046667  0.75006667  0.00000000
O        O    0.92583333  0.59296667  0.58326667  0.00000000
O        O    0.24593333  0.26956667  0.36286667  0.00000000
O        O    0.64303333  0.57926667  0.97046667  0.00000000
O        O    0.91260000  0.60290000  0.69620000  0.00000000
O        O    0.75406667  0.73043333  0.63713333  0.00000000
O        O    0.97636667  0.24593333  0.63713333  0.00000000
O        O    0.39710000  0.30970000  0.69620000  0.00000000
O        O    0.30970000  0.91260000  0.30380000  0.00000000
O        O    0.57926667  0.93623333  0.02953333  0.00000000
O        O    0.08740000  0.39710000  0.30380000  0.00000000
O        O    0.06376667  0.64303333  0.02953333  0.00000000
O        O    0.35696667  0.42073333  0.02953333  0.00000000
O        O    0.93623333  0.35696667  0.97046667  0.00000000
O        O    0.60290000  0.69030000  0.30380000  0.00000000
O        O    0.73043333  0.97636667  0.36286667  0.00000000
O        O    0.69030000  0.08740000  0.69620000  0.00000000
O        O    0.26956667  0.02363333  0.63713333  0.00000000
O        O    0.42073333  0.06376667  0.97046667  0.00000000
O        O    0.02363333  0.75406667  0.36286667  0.00000000
O        O    0.47033333  0.41366667  0.46306667  0.00000000
O        O    0.72333333  0.80366667  0.87026667  0.00000000
O        O    0.13700000  0.74700000  0.79640000  0.00000000
O        O    0.52966667  0.58633333  0.53693333  0.00000000
O        O    0.05666667  0.47033333  0.53693333  0.00000000
O        O    0.25300000  0.39000000  0.79640000  0.00000000
O        O    0.39000000  0.13700000  0.20360000  0.00000000
O        O    0.80366667  0.08033333  0.12973333  0.00000000
O        O    0.86300000  0.25300000  0.20360000  0.00000000
O        O    0.91966667  0.72333333  0.12973333  0.00000000
O        O    0.27666667  0.19633333  0.12973333  0.00000000
O        O    0.08033333  0.27666667  0.87026667  0.00000000
O        O    0.74700000  0.61000000  0.20360000  0.00000000
O        O    0.58633333  0.05666667  0.46306667  0.00000000
O        O    0.61000000  0.86300000  0.79640000  0.00000000
O        O    0.41366667  0.94333333  0.53693333  0.00000000
O        O    0.19633333  0.91966667  0.87026667  0.00000000
O        O    0.94333333  0.52966667  0.46306667  0.00000000
O        O    0.40133333  0.29566667  0.47726667  0.00000000
O        O    0.77233333  0.73466667  0.85606667  0.00000000
O        O    0.06800000  0.62900000  0.81060000  0.00000000
O        O    0.59866667  0.70433333  0.52273333  0.00000000
O        O    0.10566667  0.40133333  0.52273333  0.00000000
O        O    0.37100000  0.43900000  0.81060000  0.00000000
O        O    0.43900000  0.06800000  0.18940000  0.00000000
O        O    0.73466667  0.96233333  0.14393333  0.00000000
O        O    0.93200000  0.37100000  0.18940000  0.00000000
O        O    0.03766667  0.77233333  0.14393333  0.00000000
O        O    0.22766667  0.26533333  0.14393333  0.00000000
O        O    0.96233333  0.22766667  0.85606667  0.00000000
O        O    0.62900000  0.56100000  0.18940000  0.00000000
O        O    0.70433333  0.10566667  0.47726667  0.00000000
O        O    0.56100000  0.93200000  0.81060000  0.00000000
O        O    0.29566667  0.89433333  0.52273333  0.00000000
O        O    0.26533333  0.03766667  0.85606667  0.00000000
O        O    0.89433333  0.59866667  0.47726667  0.00000000
O        O    0.39033333  0.32566667  0.48366667  0.00000000
O        O    0.73133333  0.72366667  0.84966667  0.00000000
O        O    0.05700000  0.65900000  0.81700000  0.00000000
O        O    0.60966667  0.67433333  0.51633333  0.00000000
O        O    0.06466667  0.39033333  0.51633333  0.00000000
O        O    0.34100000  0.39800000  0.81700000  0.00000000
O        O    0.39800000  0.05700000  0.18300000  0.00000000
O        O    0.72366667  0.99233333  0.15033333  0.00000000
O        O    0.94300000  0.34100000  0.18300000  0.00000000
O        O    0.00766667  0.73133333  0.15033333  0.00000000
O        O    0.26866667  0.27633333  0.15033333  0.00000000
O        O    0.99233333  0.26866667  0.84966667  0.00000000
O        O    0.65900000  0.60200000  0.18300000  0.00000000
O        O    0.67433333  0.06466667  0.48366667  0.00000000
O        O    0.60200000  0.94300000  0.81700000  0.00000000
O        O    0.32566667  0.93533333  0.51633333  0.00000000
O        O    0.27633333  0.00766667  0.84966667  0.00000000
O        O    0.93533333  0.60966667  0.48366667  0.00000000
O        O    0.42633333  0.39666667  0.45786667  0.00000000
O        O    0.69633333  0.75966667  0.87546667  0.00000000
O        O    0.09300000  0.73000000  0.79120000  0.00000000
O        O    0.57366667  0.60333333  0.54213333  0.00000000
O        O    0.02966667  0.42633333  0.54213333  0.00000000
O        O    0.27000000  0.36300000  0.79120000  0.00000000
O        O    0.36300000  0.09300000  0.20880000  0.00000000
O        O    0.75966667  0.06333333  0.12453333  0.00000000
O        O    0.90700000  0.27000000  0.20880000  0.00000000
O        O    0.93666667  0.69633333  0.12453333  0.00000000
O        O    0.30366667  0.24033333  0.12453333  0.00000000
O        O    0.06333333  0.30366667  0.87546667  0.00000000
O        O    0.73000000  0.63700000  0.20880000  0.00000000
O        O    0.60333333  0.02966667  0.45786667  0.00000000
O        O    0.63700000  0.90700000  0.79120000  0.00000000
O        O    0.39666667  0.97033333  0.54213333  0.00000000
O        O    0.24033333  0.93666667  0.87546667  0.00000000
O        O    0.97033333  0.57366667  0.45786667  0.00000000
O        O    0.39933333  0.29866667  0.46226667  0.00000000
O        O    0.76733333  0.73266667  0.87106667  0.00000000
O        O    0.06600000  0.63200000  0.79560000  0.00000000
O        O    0.60066667  0.70133333  0.53773333  0.00000000
O        O    0.10066667  0.39933333  0.53773333  0.00000000
O        O    0.36800000  0.43400000  0.79560000  0.00000000
O        O    0.43400000  0.06600000  0.20440000  0.00000000
O        O    0.73266667  0.96533333  0.12893333  0.00000000
O        O    0.93400000  0.36800000  0.20440000  0.00000000
O        O    0.03466667  0.76733333  0.12893333  0.00000000
O        O    0.23266667  0.26733333  0.12893333  0.00000000
O        O    0.96533333  0.23266667  0.87106667  0.00000000
O        O    0.63200000  0.56600000  0.20440000  0.00000000
O        O    0.70133333  0.10066667  0.46226667  0.00000000
O        O    0.56600000  0.93400000  0.79560000  0.00000000
O        O    0.29866667  0.89933333  0.53773333  0.00000000
O        O    0.26733333  0.03466667  0.87106667  0.00000000
O        O    0.89933333  0.60066667  0.46226667  0.00000000
O        O    0.47233333  0.41166667  0.47796667  0.00000000
O        O    0.72733333  0.80566667  0.85536667  0.00000000
O        O    0.13900000  0.74500000  0.81130000  0.00000000
O        O    0.52766667  0.58833333  0.52203333  0.00000000
O        O    0.06066667  0.47233333  0.52203333  0.00000000
O        O    0.25500000  0.39400000  0.81130000  0.00000000
O        O    0.39400000  0.13900000  0.18870000  0.00000000
O        O    0.80566667  0.07833333  0.14463333  0.00000000
O        O    0.86100000  0.25500000  0.18870000  0.00000000
O        O    0.92166667  0.72733333  0.14463333  0.00000000
O        O    0.27266667  0.19433333  0.14463333  0.00000000
O        O    0.07833333  0.27266667  0.85536667  0.00000000
O        O    0.74500000  0.60600000  0.18870000  0.00000000
O        O    0.58833333  0.06066667  0.47796667  0.00000000
O        O    0.60600000  0.86100000  0.81130000  0.00000000
O        O    0.41166667  0.93933333  0.52203333  0.00000000
O        O    0.19433333  0.92166667  0.85536667  0.00000000
O        O    0.93933333  0.52766667  0.47796667  0.00000000
O        O    0.48833333  0.37366667  0.46976667  0.00000000
O        O    0.78133333  0.82166667  0.86356667  0.00000000
O        O    0.15500000  0.70700000  0.80310000  0.00000000
O        O    0.51166667  0.62633333  0.53023333  0.00000000
O        O    0.11466667  0.48833333  0.53023333  0.00000000
O        O    0.29300000  0.44800000  0.80310000  0.00000000
O        O    0.44800000  0.15500000  0.19690000  0.00000000
O        O    0.82166667  0.04033333  0.13643333  0.00000000
O        O    0.84500000  0.29300000  0.19690000  0.00000000
O        O    0.95966667  0.78133333  0.13643333  0.00000000
O        O    0.21866667  0.17833333  0.13643333  0.00000000
O        O    0.04033333  0.21866667  0.86356667  0.00000000
O        O    0.70700000  0.55200000  0.19690000  0.00000000
O        O    0.62633333  0.11466667  0.46976667  0.00000000
O        O    0.55200000  0.84500000  0.80310000  0.00000000
O        O    0.37366667  0.88533333  0.53023333  0.00000000
O        O    0.17833333  0.95966667  0.86356667  0.00000000
O        O    0.88533333  0.51166667  0.46976667  0.00000000
O        O    0.45633333  0.32266667  0.46926667  0.00000000
O        O    0.80033333  0.78966667  0.86406667  0.00000000
O        O    0.12300000  0.65600000  0.80260000  0.00000000
O        O    0.54366667  0.67733333  0.53073333  0.00000000
O        O    0.13366667  0.45633333  0.53073333  0.00000000
O        O    0.34400000  0.46700000  0.80260000  0.00000000
O        O    0.46700000  0.12300000  0.19740000  0.00000000
O        O    0.78966667  0.98933333  0.13593333  0.00000000
O        O    0.87700000  0.34400000  0.19740000  0.00000000
O        O    0.01066667  0.80033333  0.13593333  0.00000000
O        O    0.19966667  0.21033333  0.13593333  0.00000000
O        O    0.98933333  0.19966667  0.86406667  0.00000000
O        O    0.65600000  0.53300000  0.19740000  0.00000000
O        O    0.67733333  0.13366667  0.46926667  0.00000000
O        O    0.53300000  0.87700000  0.80260000  0.00000000
O        O    0.32266667  0.86633333  0.53073333  0.00000000
O        O    0.21033333  0.01066667  0.86406667  0.00000000
O        O    0.86633333  0.54366667  0.46926667  0.00000000
O        O    0.36233333  0.99166667  0.52286667  0.00000000
O        O    0.03733333  0.69566667  0.81046667  0.00000000
O        O    0.02900000  0.32500000  0.85620000  0.00000000
O        O    0.63766667  0.00833333  0.47713333  0.00000000
O        O    0.37066667  0.36233333  0.47713333  0.00000000
O        O    0.67500000  0.70400000  0.85620000  0.00000000
O        O    0.70400000  0.02900000  0.14380000  0.00000000
O        O    0.69566667  0.65833333  0.18953333  0.00000000
O        O    0.97100000  0.67500000  0.14380000  0.00000000
O        O    0.34166667  0.03733333  0.18953333  0.00000000
O        O    0.96266667  0.30433333  0.18953333  0.00000000
O        O    0.65833333  0.96266667  0.81046667  0.00000000
O        O    0.32500000  0.29600000  0.14380000  0.00000000
O        O    0.00833333  0.37066667  0.52286667  0.00000000
O        O    0.29600000  0.97100000  0.85620000  0.00000000
O        O    0.99166667  0.62933333  0.47713333  0.00000000
O        O    0.30433333  0.34166667  0.81046667  0.00000000
O        O    0.62933333  0.63766667  0.52286667  0.00000000
O        O    0.38133333  0.31466667  0.56926667  0.00000000
O        O    0.73333333  0.71466667  0.76406667  0.00000000
O        O    0.04800000  0.64800000  0.90260000  0.00000000
O        O    0.61866667  0.68533333  0.43073333  0.00000000
O        O    0.06666667  0.38133333  0.43073333  0.00000000
O        O    0.35200000  0.40000000  0.90260000  0.00000000
O        O    0.40000000  0.04800000  0.09740000  0.00000000
O        O    0.71466667  0.98133333  0.23593333  0.00000000
O        O    0.95200000  0.35200000  0.09740000  0.00000000
O        O    0.01866667  0.73333333  0.23593333  0.00000000
O        O    0.26666667  0.28533333  0.23593333  0.00000000
O        O    0.98133333  0.26666667  0.76406667  0.00000000
O        O    0.64800000  0.60000000  0.09740000  0.00000000
O        O    0.68533333  0.06666667  0.56926667  0.00000000
O        O    0.60000000  0.95200000  0.90260000  0.00000000
O        O    0.31466667  0.93333333  0.43073333  0.00000000
O        O    0.28533333  0.01866667  0.76406667  0.00000000
O        O    0.93333333  0.61866667  0.56926667  0.00000000
O        O    0.39733333  0.28466667  0.57326667  0.00000000
O        O    0.77933333  0.73066667  0.76006667  0.00000000
O        O    0.06400000  0.61800000  0.90660000  0.00000000
O        O    0.60266667  0.71533333  0.42673333  0.00000000
O        O    0.11266667  0.39733333  0.42673333  0.00000000
O        O    0.38200000  0.44600000  0.90660000  0.00000000
O        O    0.44600000  0.06400000  0.09340000  0.00000000
O        O    0.73066667  0.95133333  0.23993333  0.00000000
O        O    0.93600000  0.38200000  0.09340000  0.00000000
O        O    0.04866667  0.77933333  0.23993333  0.00000000
O        O    0.22066667  0.26933333  0.23993333  0.00000000
O        O    0.95133333  0.22066667  0.76006667  0.00000000
O        O    0.61800000  0.55400000  0.09340000  0.00000000
O        O    0.71533333  0.11266667  0.57326667  0.00000000
O        O    0.55400000  0.93600000  0.90660000  0.00000000
O        O    0.28466667  0.88733333  0.42673333  0.00000000
O        O    0.26933333  0.04866667  0.76006667  0.00000000
O        O    0.88733333  0.60266667  0.57326667  0.00000000
O        O    0.34133333  0.98466667  0.42196667  0.00000000
O        O    0.02333333  0.67466667  0.91136667  0.00000000
O        O    0.00800000  0.31800000  0.75530000  0.00000000
O        O    0.65866667  0.01533333  0.57803333  0.00000000
O        O    0.35666667  0.34133333  0.57803333  0.00000000
O        O    0.68200000  0.69000000  0.75530000  0.00000000
O        O    0.69000000  0.00800000  0.24470000  0.00000000
O        O    0.67466667  0.65133333  0.08863333  0.00000000
O        O    0.99200000  0.68200000  0.24470000  0.00000000
O        O    0.34866667  0.02333333  0.08863333  0.00000000
O        O    0.97666667  0.32533333  0.08863333  0.00000000
O        O    0.65133333  0.97666667  0.91136667  0.00000000
O        O    0.31800000  0.31000000  0.24470000  0.00000000
O        O    0.01533333  0.35666667  0.42196667  0.00000000
O        O    0.31000000  0.99200000  0.75530000  0.00000000
O        O    0.98466667  0.64333333  0.57803333  0.00000000
O        O    0.32533333  0.34866667  0.91136667  0.00000000
O        O    0.64333333  0.65866667  0.42196667  0.00000000
O        O    0.32633333  0.97766667  0.41106667  0.00000000
O        O    0.01533333  0.65966667  0.92226667  0.00000000
O        O    0.99300000  0.31100000  0.74440000  0.00000000
O        O    0.67366667  0.02233333  0.58893333  0.00000000
O        O    0.34866667  0.32633333  0.58893333  0.00000000
O        O    0.68900000  0.68200000  0.74440000  0.00000000
O        O    0.68200000  0.99300000  0.25560000  0.00000000
O        O    0.65966667  0.64433333  0.07773333  0.00000000
O        O    0.00700000  0.68900000  0.25560000  0.00000000
O        O    0.35566667  0.01533333  0.07773333  0.00000000
O        O    0.98466667  0.34033333  0.07773333  0.00000000
O        O    0.64433333  0.98466667  0.92226667  0.00000000
O        O    0.31100000  0.31800000  0.25560000  0.00000000
O        O    0.02233333  0.34866667  0.41106667  0.00000000
O        O    0.31800000  0.00700000  0.74440000  0.00000000
O        O    0.97766667  0.65133333  0.58893333  0.00000000
O        O    0.34033333  0.35566667  0.92226667  0.00000000
O        O    0.65133333  0.67366667  0.41106667  0.00000000
O        O    0.58333333  0.62166667  0.42776667  0.00000000
O        O    0.62833333  0.91666667  0.90556667  0.00000000
O        O    0.25000000  0.95500000  0.76110000  0.00000000
O        O    0.41666667  0.37833333  0.57223333  0.00000000
O        O    0.96166667  0.58333333  0.57223333  0.00000000
O        O    0.04500000  0.29500000  0.76110000  0.00000000
O        O    0.29500000  0.25000000  0.23890000  0.00000000
O        O    0.91666667  0.28833333  0.09443333  0.00000000
O        O    0.75000000  0.04500000  0.23890000  0.00000000
O        O    0.71166667  0.62833333  0.09443333  0.00000000
O        O    0.37166667  0.08333333  0.09443333  0.00000000
O        O    0.28833333  0.37166667  0.90556667  0.00000000
O        O    0.95500000  0.70500000  0.23890000  0.00000000
O        O    0.37833333  0.96166667  0.42776667  0.00000000
O        O    0.70500000  0.75000000  0.76110000  0.00000000
O        O    0.62166667  0.03833333  0.57223333  0.00000000
O        O    0.08333333  0.71166667  0.90556667  0.00000000
O        O    0.03833333  0.41666667  0.42776667  0.00000000
O        O    0.54333333  0.60266667  0.42076667  0.00000000
O        O    0.60733333  0.87666667  0.91256667  0.00000000
O        O    0.21000000  0.93600000  0.75410000  0.00000000
O        O    0.45666667  0.39733333  0.57923333  0.00000000
O        O    0.94066667  0.54333333  0.57923333  0.00000000
O        O    0.06400000  0.27400000  0.75410000  0.00000000
O        O    0.27400000  0.21000000  0.24590000  0.00000000
O        O    0.87666667  0.26933333  0.08743333  0.00000000
O        O    0.79000000  0.06400000  0.24590000  0.00000000
O        O    0.73066667  0.60733333  0.08743333  0.00000000
O        O    0.39266667  0.12333333  0.08743333  0.00000000
O        O    0.26933333  0.39266667  0.91256667  0.00000000
O        O    0.93600000  0.72600000  0.24590000  0.00000000
O        O    0.39733333  0.94066667  0.42076667  0.00000000
O        O    0.72600000  0.79000000  0.75410000  0.00000000
O        O    0.60266667  0.05933333  0.57923333  0.00000000
O        O    0.12333333  0.73066667  0.91256667  0.00000000
O        O    0.05933333  0.45666667  0.42076667  0.00000000
O        O    0.28733333  0.91766667  0.40536667  0.00000000
O        O    0.03633333  0.62066667  0.92796667  0.00000000
O        O    0.95400000  0.25100000  0.73870000  0.00000000
O        O    0.71266667  0.08233333  0.59463333  0.00000000
O        O    0.36966667  0.28733333  0.59463333  0.00000000
O        O    0.74900000  0.70300000  0.73870000  0.00000000
O        O    0.70300000  0.95400000  0.26130000  0.00000000
O        O    0.62066667  0.58433333  0.07203333  0.00000000
O        O    0.04600000  0.74900000  0.26130000  0.00000000
O        O    0.41566667  0.03633333  0.07203333  0.00000000
O        O    0.96366667  0.37933333  0.07203333  0.00000000
O        O    0.58433333  0.96366667  0.92796667  0.00000000
O        O    0.25100000  0.29700000  0.26130000  0.00000000
O        O    0.08233333  0.36966667  0.40536667  0.00000000
O        O    0.29700000  0.04600000  0.73870000  0.00000000
O        O    0.91766667  0.63033333  0.59463333  0.00000000
O        O    0.37933333  0.41566667  0.92796667  0.00000000
O        O    0.63033333  0.71266667  0.40536667  0.00000000
O        O    0.26933333  0.87766667  0.41226667  0.00000000
O        O    0.05833333  0.60266667  0.92106667  0.00000000
O        O    0.93600000  0.21100000  0.74560000  0.00000000
O        O    0.73066667  0.12233333  0.58773333  0.00000000
O        O    0.39166667  0.26933333  0.58773333  0.00000000
O        O    0.78900000  0.72500000  0.74560000  0.00000000
O        O    0.72500000  0.93600000  0.25440000  0.00000000
O        O    0.60266667  0.54433333  0.07893333  0.00000000
O        O    0.06400000  0.78900000  0.25440000  0.00000000
O        O    0.45566667  0.05833333  0.07893333  0.00000000
O        O    0.94166667  0.39733333  0.07893333  0.00000000
O        O    0.54433333  0.94166667  0.92106667  0.00000000
O        O    0.21100000  0.27500000  0.25440000  0.00000000
O        O    0.12233333  0.39166667  0.41226667  0.00000000
O        O    0.27500000  0.06400000  0.74560000  0.00000000
O        O    0.87766667  0.60833333  0.58773333  0.00000000
O        O    0.39733333  0.45566667  0.92106667  0.00000000
O        O    0.60833333  0.73066667  0.41226667  0.00000000
O        O    0.60233333  0.65966667  0.31706667  0.00000000
O        O    0.60933333  0.93566667  0.01626667  0.00000000
O        O    0.26900000  0.99300000  0.65040000  0.00000000
O        O    0.39766667  0.34033333  0.68293333  0.00000000
O        O    0.94266667  0.60233333  0.68293333  0.00000000
O        O    0.00700000  0.27600000  0.65040000  0.00000000
O        O    0.27600000  0.26900000  0.34960000  0.00000000
O        O    0.93566667  0.32633333  0.98373333  0.00000000
O        O    0.73100000  0.00700000  0.34960000  0.00000000
O        O    0.67366667  0.60933333  0.98373333  0.00000000
O        O    0.39066667  0.06433333  0.98373333  0.00000000
O        O    0.32633333  0.39066667  0.01626667  0.00000000
O        O    0.99300000  0.72400000  0.34960000  0.00000000
O        O    0.34033333  0.94266667  0.31706667  0.00000000
O        O    0.72400000  0.73100000  0.65040000  0.00000000
O        O    0.65966667  0.05733333  0.68293333  0.00000000
O        O    0.06433333  0.67366667  0.01626667  0.00000000
O        O    0.05733333  0.39766667  0.31706667  0.00000000
O        O    0.56233333  0.62966667  0.31086667  0.00000000
O        O    0.59933333  0.89566667  0.02246667  0.00000000
O        O    0.22900000  0.96300000  0.64420000  0.00000000
O        O    0.43766667  0.37033333  0.68913333  0.00000000
O        O    0.93266667  0.56233333  0.68913333  0.00000000
O        O    0.03700000  0.26600000  0.64420000  0.00000000
O        O    0.26600000  0.22900000  0.35580000  0.00000000
O        O    0.89566667  0.29633333  0.97753333  0.00000000
O        O    0.77100000  0.03700000  0.35580000  0.00000000
O        O    0.70366667  0.59933333  0.97753333  0.00000000
O        O    0.40066667  0.10433333  0.97753333  0.00000000
O        O    0.29633333  0.40066667  0.02246667  0.00000000
O        O    0.96300000  0.73400000  0.35580000  0.00000000
O        O    0.37033333  0.93266667  0.31086667  0.00000000
O        O    0.73400000  0.77100000  0.64420000  0.00000000
O        O    0.62966667  0.06733333  0.68913333  0.00000000
O        O    0.10433333  0.70366667  0.02246667  0.00000000
O        O    0.06733333  0.43766667  0.31086667  0.00000000
O        O    0.21133333  0.20066667  0.36406667  0.00000000
O        O    0.67733333  0.54466667  0.96926667  0.00000000
O        O    0.87800000  0.53400000  0.69740000  0.00000000
O        O    0.78866667  0.79933333  0.63593333  0.00000000
O        O    0.01066667  0.21133333  0.63593333  0.00000000
O        O    0.46600000  0.34400000  0.69740000  0.00000000
O        O    0.34400000  0.87800000  0.30260000  0.00000000
O        O    0.54466667  0.86733333  0.03073333  0.00000000
O        O    0.12200000  0.46600000  0.30260000  0.00000000
O        O    0.13266667  0.67733333  0.03073333  0.00000000
O        O    0.32266667  0.45533333  0.03073333  0.00000000
O        O    0.86733333  0.32266667  0.96926667  0.00000000
O        O    0.53400000  0.65600000  0.30260000  0.00000000
O        O    0.79933333  0.01066667  0.36406667  0.00000000
O        O    0.65600000  0.12200000  0.69740000  0.00000000
O        O    0.20066667  0.98933333  0.63593333  0.00000000
O        O    0.45533333  0.13266667  0.96926667  0.00000000
O        O    0.98933333  0.78866667  0.36406667  0.00000000
O        O    0.36433333  0.99566667  0.53426667  0.00000000
O        O    0.03533333  0.69766667  0.79906667  0.00000000
O        O    0.03100000  0.32900000  0.86760000  0.00000000
O        O    0.63566667  0.00433333  0.46573333  0.00000000
O        O    0.36866667  0.36433333  0.46573333  0.00000000
O        O    0.67100000  0.70200000  0.86760000  0.00000000
O        O    0.70200000  0.03100000  0.13240000  0.00000000
O        O    0.69766667  0.66233333  0.20093333  0.00000000
O        O    0.96900000  0.67100000  0.13240000  0.00000000
O        O    0.33766667  0.03533333  0.20093333  0.00000000
O        O    0.96466667  0.30233333  0.20093333  0.00000000
O        O    0.66233333  0.96466667  0.79906667  0.00000000
O        O    0.32900000  0.29800000  0.13240000  0.00000000
O        O    0.00433333  0.36866667  0.53426667  0.00000000
O        O    0.29800000  0.96900000  0.86760000  0.00000000
O        O    0.99566667  0.63133333  0.46573333  0.00000000
O        O    0.30233333  0.33766667  0.79906667  0.00000000
O        O    0.63133333  0.63566667  0.53426667  0.00000000
O        O    0.38733333  0.33066667  0.45726667  0.00000000
O        O    0.72333333  0.72066667  0.87606667  0.00000000
O        O    0.05400000  0.66400000  0.79060000  0.00000000
O        O    0.61266667  0.66933333  0.54273333  0.00000000
O        O    0.05666667  0.38733333  0.54273333  0.00000000
O        O    0.33600000  0.39000000  0.79060000  0.00000000
O        O    0.39000000  0.05400000  0.20940000  0.00000000
O        O    0.72066667  0.99733333  0.12393333  0.00000000
O        O    0.94600000  0.33600000  0.20940000  0.00000000
O        O    0.00266667  0.72333333  0.12393333  0.00000000
O        O    0.27666667  0.27933333  0.12393333  0.00000000
O        O    0.99733333  0.27666667  0.87606667  0.00000000
O        O    0.66400000  0.61000000  0.20940000  0.00000000
O        O    0.66933333  0.05666667  0.45726667  0.00000000
O        O    0.61000000  0.94600000  0.79060000  0.00000000
O        O    0.33066667  0.94333333  0.54273333  0.00000000
O        O    0.27933333  0.00266667  0.87606667  0.00000000
O        O    0.94333333  0.61266667  0.45726667  0.00000000
O        O    0.26933333  0.23366667  0.37066667  0.00000000
O        O    0.70233333  0.60266667  0.96266667  0.00000000
O        O    0.93600000  0.56700000  0.70400000  0.00000000
O        O    0.73066667  0.76633333  0.62933333  0.00000000
O        O    0.03566667  0.26933333  0.62933333  0.00000000
O        O    0.43300000  0.36900000  0.70400000  0.00000000
O        O    0.36900000  0.93600000  0.29600000  0.00000000
O        O    0.60266667  0.90033333  0.03733333  0.00000000
O        O    0.06400000  0.43300000  0.29600000  0.00000000
O        O    0.09966667  0.70233333  0.03733333  0.00000000
O        O    0.29766667  0.39733333  0.03733333  0.00000000
O        O    0.90033333  0.29766667  0.96266667  0.00000000
O        O    0.56700000  0.63100000  0.29600000  0.00000000
O        O    0.76633333  0.03566667  0.37066667  0.00000000
O        O    0.63100000  0.06400000  0.70400000  0.00000000
O        O    0.23366667  0.96433333  0.62933333  0.00000000
O        O    0.39733333  0.09966667  0.96266667  0.00000000
O        O    0.96433333  0.73066667  0.37066667  0.00000000
O        O    0.28133333  0.27766667  0.37586667  0.00000000
O        O    0.67033333  0.61466667  0.95746667  0.00000000
O        O    0.94800000  0.61100000  0.70920000  0.00000000
O        O    0.71866667  0.72233333  0.62413333  0.00000000
O        O    0.00366667  0.28133333  0.62413333  0.00000000
O        O    0.38900000  0.33700000  0.70920000  0.00000000
O        O    0.33700000  0.94800000  0.29080000  0.00000000
O        O    0.61466667  0.94433333  0.04253333  0.00000000
O        O    0.05200000  0.38900000  0.29080000  0.00000000
O        O    0.05566667  0.67033333  0.04253333  0.00000000
O        O    0.32966667  0.38533333  0.04253333  0.00000000
O        O    0.94433333  0.32966667  0.95746667  0.00000000
O        O    0.61100000  0.66300000  0.29080000  0.00000000
O        O    0.72233333  0.00366667  0.37586667  0.00000000
O        O    0.66300000  0.05200000  0.70920000  0.00000000
O        O    0.27766667  0.99633333  0.62413333  0.00000000
O        O    0.38533333  0.05566667  0.95746667  0.00000000
O        O    0.99633333  0.71866667  0.37586667  0.00000000
O        O    0.29733333  0.32966667  0.36756667  0.00000000
O        O    0.63433333  0.63066667  0.96576667  0.00000000
O        O    0.96400000  0.66300000  0.70090000  0.00000000
O        O    0.70266667  0.67033333  0.63243333  0.00000000
O        O    0.96766667  0.29733333  0.63243333  0.00000000
O        O    0.33700000  0.30100000  0.70090000  0.00000000
O        O    0.30100000  0.96400000  0.29910000  0.00000000
O        O    0.63066667  0.99633333  0.03423333  0.00000000
O        O    0.03600000  0.33700000  0.29910000  0.00000000
O        O    0.00366667  0.63433333  0.03423333  0.00000000
O        O    0.36566667  0.36933333  0.03423333  0.00000000
O        O    0.99633333  0.36566667  0.96576667  0.00000000
O        O    0.66300000  0.69900000  0.29910000  0.00000000
O        O    0.67033333  0.96766667  0.36756667  0.00000000
O        O    0.69900000  0.03600000  0.70090000  0.00000000
O        O    0.32966667  0.03233333  0.63243333  0.00000000
O        O    0.36933333  0.00366667  0.96576667  0.00000000
O        O    0.03233333  0.70266667  0.36756667  0.00000000
O        O    0.60133333  0.64966667  0.40226667  0.00000000
O        O    0.61833333  0.93466667  0.93106667  0.00000000
O        O    0.26800000  0.98300000  0.73560000  0.00000000
O        O    0.39866667  0.35033333  0.59773333  0.00000000
O        O    0.95166667  0.60133333  0.59773333  0.00000000
O        O    0.01700000  0.28500000  0.73560000  0.00000000
O        O    0.28500000  0.26800000  0.26440000  0.00000000
O        O    0.93466667  0.31633333  0.06893333  0.00000000
O        O    0.73200000  0.01700000  0.26440000  0.00000000
O        O    0.68366667  0.61833333  0.06893333  0.00000000
O        O    0.38166667  0.06533333  0.06893333  0.00000000
O        O    0.31633333  0.38166667  0.93106667  0.00000000
O        O    0.98300000  0.71500000  0.26440000  0.00000000
O        O    0.35033333  0.95166667  0.40226667  0.00000000
O        O    0.71500000  0.73200000  0.73560000  0.00000000
O        O    0.64966667  0.04833333  0.59773333  0.00000000
O        O    0.06533333  0.68366667  0.93106667  0.00000000
O        O    0.04833333  0.39866667  0.40226667  0.00000000
O        O    0.55433333  0.61866667  0.40616667  0.00000000
O        O    0.60233333  0.88766667  0.92716667  0.00000000
O        O    0.22100000  0.95200000  0.73950000  0.00000000
O        O    0.44566667  0.38133333  0.59383333  0.00000000
O        O    0.93566667  0.55433333  0.59383333  0.00000000
O        O    0.04800000  0.26900000  0.73950000  0.00000000
O        O    0.26900000  0.22100000  0.26050000  0.00000000
O        O    0.88766667  0.28533333  0.07283333  0.00000000
O        O    0.77900000  0.04800000  0.26050000  0.00000000
O        O    0.71466667  0.60233333  0.07283333  0.00000000
O        O    0.39766667  0.11233333  0.07283333  0.00000000
O        O    0.28533333  0.39766667  0.92716667  0.00000000
O        O    0.95200000  0.73100000  0.26050000  0.00000000
O        O    0.38133333  0.93566667  0.40616667  0.00000000
O        O    0.73100000  0.77900000  0.73950000  0.00000000
O        O    0.61866667  0.06433333  0.59383333  0.00000000
O        O    0.11233333  0.71466667  0.92716667  0.00000000
O        O    0.06433333  0.44566667  0.40616667  0.00000000
O        O    0.29533333  0.32566667  0.35616667  0.00000000
O        O    0.63633333  0.62866667  0.97716667  0.00000000
O        O    0.96200000  0.65900000  0.68950000  0.00000000
O        O    0.70466667  0.67433333  0.64383333  0.00000000
O        O    0.96966667  0.29533333  0.64383333  0.00000000
O        O    0.34100000  0.30300000  0.68950000  0.00000000
O        O    0.30300000  0.96200000  0.31050000  0.00000000
O        O    0.62866667  0.99233333  0.02283333  0.00000000
O        O    0.03800000  0.34100000  0.31050000  0.00000000
O        O    0.00766667  0.63633333  0.02283333  0.00000000
O        O    0.36366667  0.37133333  0.02283333  0.00000000
O        O    0.99233333  0.36366667  0.97716667  0.00000000
O        O    0.65900000  0.69700000  0.31050000  0.00000000
O        O    0.67433333  0.96966667  0.35616667  0.00000000
O        O    0.69700000  0.03800000  0.68950000  0.00000000
O        O    0.32566667  0.03033333  0.64383333  0.00000000
O        O    0.37133333  0.00766667  0.97716667  0.00000000
O        O    0.03033333  0.70466667  0.35616667  0.00000000
O        O    0.52533333  0.64266667  0.41476667  0.00000000
O        O    0.54933333  0.85866667  0.91856667  0.00000000
O        O    0.19200000  0.97600000  0.74810000  0.00000000
O        O    0.47466667  0.35733333  0.58523333  0.00000000
O        O    0.88266667  0.52533333  0.58523333  0.00000000
O        O    0.02400000  0.21600000  0.74810000  0.00000000
O        O    0.21600000  0.19200000  0.25190000  0.00000000
O        O    0.85866667  0.30933333  0.08143333  0.00000000
O        O    0.80800000  0.02400000  0.25190000  0.00000000
O        O    0.69066667  0.54933333  0.08143333  0.00000000
O        O    0.45066667  0.14133333  0.08143333  0.00000000
O        O    0.30933333  0.45066667  0.91856667  0.00000000
O        O    0.97600000  0.78400000  0.25190000  0.00000000
O        O    0.35733333  0.88266667  0.41476667  0.00000000
O        O    0.78400000  0.80800000  0.74810000  0.00000000
O        O    0.64266667  0.11733333  0.58523333  0.00000000
O        O    0.14133333  0.69066667  0.91856667  0.00000000
O        O    0.11733333  0.47466667  0.41476667  0.00000000
O        O    0.55033333  0.69166667  0.41796667  0.00000000
O        O    0.52533333  0.88366667  0.91536667  0.00000000
O        O    0.21700000  0.02500000  0.75130000  0.00000000
O        O    0.44966667  0.30833333  0.58203333  0.00000000
O        O    0.85866667  0.55033333  0.58203333  0.00000000
O        O    0.97500000  0.19200000  0.75130000  0.00000000
O        O    0.19200000  0.21700000  0.24870000  0.00000000
O        O    0.88366667  0.35833333  0.08463333  0.00000000
O        O    0.78300000  0.97500000  0.24870000  0.00000000
O        O    0.64166667  0.52533333  0.08463333  0.00000000
O        O    0.47466667  0.11633333  0.08463333  0.00000000
O        O    0.35833333  0.47466667  0.91536667  0.00000000
O        O    0.02500000  0.80800000  0.24870000  0.00000000
O        O    0.30833333  0.85866667  0.41796667  0.00000000
O        O    0.80800000  0.78300000  0.75130000  0.00000000
O        O    0.69166667  0.14133333  0.58203333  0.00000000
O        O    0.11633333  0.64166667  0.91536667  0.00000000
O        O    0.14133333  0.44966667  0.41796667  0.00000000
O        O    0.18033333  0.21966667  0.36356667  0.00000000
O        O    0.62733333  0.51366667  0.96976667  0.00000000
O        O    0.84700000  0.55300000  0.69690000  0.00000000
O        O    0.81966667  0.78033333  0.63643333  0.00000000
O        O    0.96066667  0.18033333  0.63643333  0.00000000
O        O    0.44700000  0.29400000  0.69690000  0.00000000
O        O    0.29400000  0.84700000  0.30310000  0.00000000
O        O    0.51366667  0.88633333  0.03023333  0.00000000
O        O    0.15300000  0.44700000  0.30310000  0.00000000
O        O    0.11366667  0.62733333  0.03023333  0.00000000
O        O    0.37266667  0.48633333  0.03023333  0.00000000
O        O    0.88633333  0.37266667  0.96976667  0.00000000
O        O    0.55300000  0.70600000  0.30310000  0.00000000
O        O    0.78033333  0.96066667  0.36356667  0.00000000
O        O    0.70600000  0.15300000  0.69690000  0.00000000
O        O    0.21966667  0.03933333  0.63643333  0.00000000
O        O    0.48633333  0.11366667  0.96976667  0.00000000
O        O    0.03933333  0.81966667  0.36356667  0.00000000
O        O    0.08033333  0.80366667  0.37036667  0.00000000
O        O    0.94333333  0.41366667  0.96296667  0.00000000
O        O    0.74700000  0.13700000  0.70370000  0.00000000
O        O    0.91966667  0.19633333  0.62963333  0.00000000
O        O    0.27666667  0.08033333  0.62963333  0.00000000
O        O    0.86300000  0.61000000  0.70370000  0.00000000
O        O    0.61000000  0.74700000  0.29630000  0.00000000
O        O    0.41366667  0.47033333  0.03703333  0.00000000
O        O    0.25300000  0.86300000  0.29630000  0.00000000
O        O    0.52966667  0.94333333  0.03703333  0.00000000
O        O    0.05666667  0.58633333  0.03703333  0.00000000
O        O    0.47033333  0.05666667  0.96296667  0.00000000
O        O    0.13700000  0.39000000  0.29630000  0.00000000
O        O    0.19633333  0.27666667  0.37036667  0.00000000
O        O    0.39000000  0.25300000  0.70370000  0.00000000
O        O    0.80366667  0.72333333  0.62963333  0.00000000
O        O    0.58633333  0.52966667  0.96296667  0.00000000
O        O    0.72333333  0.91966667  0.37036667  0.00000000
O        O    0.06233333  0.75866667  0.37556667  0.00000000
O        O    0.97033333  0.39566667  0.95776667  0.00000000
O        O    0.72900000  0.09200000  0.70890000  0.00000000
O        O    0.93766667  0.24133333  0.62443333  0.00000000
O        O    0.30366667  0.06233333  0.62443333  0.00000000
O        O    0.90800000  0.63700000  0.70890000  0.00000000
O        O    0.63700000  0.72900000  0.29110000  0.00000000
O        O    0.39566667  0.42533333  0.04223333  0.00000000
O        O    0.27100000  0.90800000  0.29110000  0.00000000
O        O    0.57466667  0.97033333  0.04223333  0.00000000
O        O    0.02966667  0.60433333  0.04223333  0.00000000
O        O    0.42533333  0.02966667  0.95776667  0.00000000
O        O    0.09200000  0.36300000  0.29110000  0.00000000
O        O    0.24133333  0.30366667  0.37556667  0.00000000
O        O    0.36300000  0.27100000  0.70890000  0.00000000
O        O    0.75866667  0.69633333  0.62443333  0.00000000
O        O    0.60433333  0.57466667  0.95776667  0.00000000
O        O    0.69633333  0.93766667  0.37556667  0.00000000
O        O    0.42833333  0.39066667  0.48386667  0.00000000
O        O    0.70433333  0.76166667  0.84946667  0.00000000
O        O    0.09500000  0.72400000  0.81720000  0.00000000
O        O    0.57166667  0.60933333  0.51613333  0.00000000
O        O    0.03766667  0.42833333  0.51613333  0.00000000
O        O    0.27600000  0.37100000  0.81720000  0.00000000
O        O    0.37100000  0.09500000  0.18280000  0.00000000
O        O    0.76166667  0.05733333  0.15053333  0.00000000
O        O    0.90500000  0.27600000  0.18280000  0.00000000
O        O    0.94266667  0.70433333  0.15053333  0.00000000
O        O    0.29566667  0.23833333  0.15053333  0.00000000
O        O    0.05733333  0.29566667  0.84946667  0.00000000
O        O    0.72400000  0.62900000  0.18280000  0.00000000
O        O    0.60933333  0.03766667  0.48386667  0.00000000
O        O    0.62900000  0.90500000  0.81720000  0.00000000
O        O    0.39066667  0.96233333  0.51613333  0.00000000
O        O    0.23833333  0.94266667  0.84946667  0.00000000
O        O    0.96233333  0.57166667  0.48386667  0.00000000
O        O    0.60733333  0.74566667  0.31116667  0.00000000
O        O    0.52833333  0.94066667  0.02216667  0.00000000
O        O    0.27400000  0.07900000  0.64450000  0.00000000
O        O    0.39266667  0.25433333  0.68883333  0.00000000
O        O    0.86166667  0.60733333  0.68883333  0.00000000
O        O    0.92100000  0.19500000  0.64450000  0.00000000
O        O    0.19500000  0.27400000  0.35550000  0.00000000
O        O    0.94066667  0.41233333  0.97783333  0.00000000
O        O    0.72600000  0.92100000  0.35550000  0.00000000
O        O    0.58766667  0.52833333  0.97783333  0.00000000
O        O    0.47166667  0.05933333  0.97783333  0.00000000
O        O    0.41233333  0.47166667  0.02216667  0.00000000
O        O    0.07900000  0.80500000  0.35550000  0.00000000
O        O    0.25433333  0.86166667  0.31116667  0.00000000
O        O    0.80500000  0.72600000  0.64450000  0.00000000
O        O    0.74566667  0.13833333  0.68883333  0.00000000
O        O    0.05933333  0.58766667  0.02216667  0.00000000
O        O    0.13833333  0.39266667  0.31116667  0.00000000
O        O    0.62933333  0.72466667  0.31706667  0.00000000
O        O    0.57133333  0.96266667  0.01626667  0.00000000
O        O    0.29600000  0.05800000  0.65040000  0.00000000
O        O    0.37066667  0.27533333  0.68293333  0.00000000
O        O    0.90466667  0.62933333  0.68293333  0.00000000
O        O    0.94200000  0.23800000  0.65040000  0.00000000
O        O    0.23800000  0.29600000  0.34960000  0.00000000
O        O    0.96266667  0.39133333  0.98373333  0.00000000
O        O    0.70400000  0.94200000  0.34960000  0.00000000
O        O    0.60866667  0.57133333  0.98373333  0.00000000
O        O    0.42866667  0.03733333  0.98373333  0.00000000
O        O    0.39133333  0.42866667  0.01626667  0.00000000
O        O    0.05800000  0.76200000  0.34960000  0.00000000
O        O    0.27533333  0.90466667  0.31706667  0.00000000
O        O    0.76200000  0.70400000  0.65040000  0.00000000
O        O    0.72466667  0.09533333  0.68293333  0.00000000
O        O    0.03733333  0.60866667  0.01626667  0.00000000
O        O    0.09533333  0.37066667  0.31706667  0.00000000
C        C    0.45433333  0.41566667  0.45836667  0.00000000
C        C    0.70533333  0.78766667  0.87496667  0.00000000
C        C    0.12100000  0.74900000  0.79170000  0.00000000
C        C    0.54566667  0.58433333  0.54163333  0.00000000
C        C    0.03866667  0.45433333  0.54163333  0.00000000
C        C    0.25100000  0.37200000  0.79170000  0.00000000
C        C    0.37200000  0.12100000  0.20830000  0.00000000
C        C    0.78766667  0.08233333  0.12503333  0.00000000
C        C    0.87900000  0.25100000  0.20830000  0.00000000
C        C    0.91766667  0.70533333  0.12503333  0.00000000
C        C    0.29466667  0.21233333  0.12503333  0.00000000
C        C    0.08233333  0.29466667  0.87496667  0.00000000
C        C    0.74900000  0.62800000  0.20830000  0.00000000
C        C    0.58433333  0.03866667  0.45836667  0.00000000
C        C    0.62800000  0.87900000  0.79170000  0.00000000
C        C    0.41566667  0.96133333  0.54163333  0.00000000
C        C    0.21233333  0.91766667  0.87496667  0.00000000
C        C    0.96133333  0.54566667  0.45836667  0.00000000
C        C    0.45633333  0.41166667  0.48306667  0.00000000
C        C    0.71133333  0.78966667  0.85026667  0.00000000
C        C    0.12300000  0.74500000  0.81640000  0.00000000
C        C    0.54366667  0.58833333  0.51693333  0.00000000
C        C    0.04466667  0.45633333  0.51693333  0.00000000
C        C    0.25500000  0.37800000  0.81640000  0.00000000
C        C    0.37800000  0.12300000  0.18360000  0.00000000
C        C    0.78966667  0.07833333  0.14973333  0.00000000
C        C    0.87700000  0.25500000  0.18360000  0.00000000
C        C    0.92166667  0.71133333  0.14973333  0.00000000
C        C    0.28866667  0.21033333  0.14973333  0.00000000
C        C    0.07833333  0.28866667  0.85026667  0.00000000
C        C    0.74500000  0.62200000  0.18360000  0.00000000
C        C    0.58833333  0.04466667  0.48306667  0.00000000
C        C    0.62200000  0.87700000  0.81640000  0.00000000
C        C    0.41166667  0.95533333  0.51693333  0.00000000
C        C    0.21033333  0.92166667  0.85026667  0.00000000
C        C    0.95533333  0.54366667  0.48306667  0.00000000
C        C    0.48333333  0.34666667  0.46926667  0.00000000
C        C    0.80333333  0.81666667  0.86406667  0.00000000
C        C    0.15000000  0.68000000  0.80260000  0.00000000
C        C    0.51666667  0.65333333  0.53073333  0.00000000
C        C    0.13666667  0.48333333  0.53073333  0.00000000
C        C    0.32000000  0.47000000  0.80260000  0.00000000
C        C    0.47000000  0.15000000  0.19740000  0.00000000
C        C    0.81666667  0.01333333  0.13593333  0.00000000
C        C    0.85000000  0.32000000  0.19740000  0.00000000
C        C    0.98666667  0.80333333  0.13593333  0.00000000
C        C    0.19666667  0.18333333  0.13593333  0.00000000
C        C    0.01333333  0.19666667  0.86406667  0.00000000
C        C    0.68000000  0.53000000  0.19740000  0.00000000
C        C    0.65333333  0.13666667  0.46926667  0.00000000
C        C    0.53000000  0.85000000  0.80260000  0.00000000
C        C    0.34666667  0.86333333  0.53073333  0.00000000
C        C    0.18333333  0.98666667  0.86406667  0.00000000
C        C    0.86333333  0.51666667  0.46926667  0.00000000
C        C    0.37633333  0.27566667  0.56196667  0.00000000
C        C    0.76733333  0.70966667  0.77136667  0.00000000
C        C    0.04300000  0.60900000  0.89530000  0.00000000
C        C    0.62366667  0.72433333  0.43803333  0.00000000
C        C    0.10066667  0.37633333  0.43803333  0.00000000
C        C    0.39100000  0.43400000  0.89530000  0.00000000
C        C    0.43400000  0.04300000  0.10470000  0.00000000
C        C    0.70966667  0.94233333  0.22863333  0.00000000
C        C    0.95700000  0.39100000  0.10470000  0.00000000
C        C    0.05766667  0.76733333  0.22863333  0.00000000
C        C    0.23266667  0.29033333  0.22863333  0.00000000
C        C    0.94233333  0.23266667  0.77136667  0.00000000
C        C    0.60900000  0.56600000  0.10470000  0.00000000
C        C    0.72433333  0.10066667  0.56196667  0.00000000
C        C    0.56600000  0.95700000  0.89530000  0.00000000
C        C    0.27566667  0.89933333  0.43803333  0.00000000
C        C    0.29033333  0.05766667  0.77136667  0.00000000
C        C    0.89933333  0.62366667  0.56196667  0.00000000
C        C    0.33433333  0.99366667  0.41656667  0.00000000
C        C    0.00733333  0.66766667  0.91676667  0.00000000
C        C    0.00100000  0.32700000  0.74990000  0.00000000
C        C    0.66566667  0.00633333  0.58343333  0.00000000
C        C    0.34066667  0.33433333  0.58343333  0.00000000
C        C    0.67300000  0.67400000  0.74990000  0.00000000
C        C    0.67400000  0.00100000  0.25010000  0.00000000
C        C    0.66766667  0.66033333  0.08323333  0.00000000
C        C    0.99900000  0.67300000  0.25010000  0.00000000
C        C    0.33966667  0.00733333  0.08323333  0.00000000
C        C    0.99266667  0.33233333  0.08323333  0.00000000
C        C    0.66033333  0.99266667  0.91676667  0.00000000
C        C    0.32700000  0.32600000  0.25010000  0.00000000
C        C    0.00633333  0.34066667  0.41656667  0.00000000
C        C    0.32600000  0.99900000  0.74990000  0.00000000
C        C    0.99366667  0.65933333  0.58343333  0.00000000
C        C    0.33233333  0.33966667  0.91676667  0.00000000
C        C    0.65933333  0.66566667  0.41656667  0.00000000
C        C    0.55733333  0.60066667  0.42616667  0.00000000
C        C    0.62333333  0.89066667  0.90716667  0.00000000
C        C    0.22400000  0.93400000  0.75950000  0.00000000
C        C    0.44266667  0.39933333  0.57383333  0.00000000
C        C    0.95666667  0.55733333  0.57383333  0.00000000
C        C    0.06600000  0.29000000  0.75950000  0.00000000
C        C    0.29000000  0.22400000  0.24050000  0.00000000
C        C    0.89066667  0.26733333  0.09283333  0.00000000
C        C    0.77600000  0.06600000  0.24050000  0.00000000
C        C    0.73266667  0.62333333  0.09283333  0.00000000
C        C    0.37666667  0.10933333  0.09283333  0.00000000
C        C    0.26733333  0.37666667  0.90716667  0.00000000
C        C    0.93400000  0.71000000  0.24050000  0.00000000
C        C    0.39933333  0.95666667  0.42616667  0.00000000
C        C    0.71000000  0.77600000  0.75950000  0.00000000
C        C    0.60066667  0.04333333  0.57383333  0.00000000
C        C    0.10933333  0.73266667  0.90716667  0.00000000
C        C    0.04333333  0.44266667  0.42616667  0.00000000
C        C    0.30933333  0.34066667  0.36166667  0.00000000
C        C    0.63533333  0.64266667  0.97166667  0.00000000
C        C    0.97600000  0.67400000  0.69500000  0.00000000
C        C    0.69066667  0.65933333  0.63833333  0.00000000
C        C    0.96866667  0.30933333  0.63833333  0.00000000
C        C    0.32600000  0.30200000  0.69500000  0.00000000
C        C    0.30200000  0.97600000  0.30500000  0.00000000
C        C    0.64266667  0.00733333  0.02833333  0.00000000
C        C    0.02400000  0.32600000  0.30500000  0.00000000
C        C    0.99266667  0.63533333  0.02833333  0.00000000
C        C    0.36466667  0.35733333  0.02833333  0.00000000
C        C    0.00733333  0.36466667  0.97166667  0.00000000
C        C    0.67400000  0.69800000  0.30500000  0.00000000
C        C    0.65933333  0.96866667  0.36166667  0.00000000
C        C    0.69800000  0.02400000  0.69500000  0.00000000
C        C    0.34066667  0.03133333  0.63833333  0.00000000
C        C    0.35733333  0.99266667  0.97166667  0.00000000
C        C    0.03133333  0.69066667  0.36166667  0.00000000
C        C    0.57833333  0.63466667  0.31626667  0.00000000
C        C    0.61033333  0.91166667  0.01706667  0.00000000
C        C    0.24500000  0.96800000  0.64960000  0.00000000
C        C    0.42166667  0.36533333  0.68373333  0.00000000
C        C    0.94366667  0.57833333  0.68373333  0.00000000
C        C    0.03200000  0.27700000  0.64960000  0.00000000
C        C    0.27700000  0.24500000  0.35040000  0.00000000
C        C    0.91166667  0.30133333  0.98293333  0.00000000
C        C    0.75500000  0.03200000  0.35040000  0.00000000
C        C    0.69866667  0.61033333  0.98293333  0.00000000
C        C    0.38966667  0.08833333  0.98293333  0.00000000
C        C    0.30133333  0.38966667  0.01706667  0.00000000
C        C    0.96800000  0.72300000  0.35040000  0.00000000
C        C    0.36533333  0.94366667  0.31626667  0.00000000
C        C    0.72300000  0.75500000  0.64960000  0.00000000
C        C    0.63466667  0.05633333  0.68373333  0.00000000
C        C    0.08833333  0.69866667  0.01706667  0.00000000
C        C    0.05633333  0.42166667  0.31626667  0.00000000
C        C    0.18433333  0.19666667  0.36406667  0.00000000
C        C    0.65433333  0.51766667  0.96926667  0.00000000
C        C    0.85100000  0.53000000  0.69740000  0.00000000
C        C    0.81566667  0.80333333  0.63593333  0.00000000
C        C    0.98766667  0.18433333  0.63593333  0.00000000
C        C    0.47000000  0.32100000  0.69740000  0.00000000
C        C    0.32100000  0.85100000  0.30260000  0.00000000
C        C    0.51766667  0.86333333  0.03073333  0.00000000
C        C    0.14900000  0.47000000  0.30260000  0.00000000
C        C    0.13666667  0.65433333  0.03073333  0.00000000
C        C    0.34566667  0.48233333  0.03073333  0.00000000
C        C    0.86333333  0.34566667  0.96926667  0.00000000
C        C    0.53000000  0.67900000  0.30260000  0.00000000
C        C    0.80333333  0.98766667  0.36406667  0.00000000
C        C    0.67900000  0.14900000  0.69740000  0.00000000
C        C    0.19666667  0.01233333  0.63593333  0.00000000
C        C    0.48233333  0.13666667  0.96926667  0.00000000
C        C    0.01233333  0.81566667  0.36406667  0.00000000
C        C    0.39033333  0.30066667  0.48276667  0.00000000
C        C    0.75633333  0.72366667  0.85056667  0.00000000
C        C    0.05700000  0.63400000  0.81610000  0.00000000
C        C    0.60966667  0.69933333  0.51723333  0.00000000
C        C    0.08966667  0.39033333  0.51723333  0.00000000
C        C    0.36600000  0.42300000  0.81610000  0.00000000
C        C    0.42300000  0.05700000  0.18390000  0.00000000
C        C    0.72366667  0.96733333  0.14943333  0.00000000
C        C    0.94300000  0.36600000  0.18390000  0.00000000
C        C    0.03266667  0.75633333  0.14943333  0.00000000
C        C    0.24366667  0.27633333  0.14943333  0.00000000
C        C    0.96733333  0.24366667  0.85056667  0.00000000
C        C    0.63400000  0.57700000  0.18390000  0.00000000
C        C    0.69933333  0.08966667  0.48276667  0.00000000
C        C    0.57700000  0.94300000  0.81610000  0.00000000
C        C    0.30066667  0.91033333  0.51723333  0.00000000
C        C    0.27633333  0.03266667  0.85056667  0.00000000
C        C    0.91033333  0.60966667  0.48276667  0.00000000
C        C    0.37633333  0.27766667  0.48826667  0.00000000
C        C    0.76533333  0.70966667  0.84506667  0.00000000
C        C    0.04300000  0.61100000  0.82160000  0.00000000
C        C    0.62366667  0.72233333  0.51173333  0.00000000
C        C    0.09866667  0.37633333  0.51173333  0.00000000
C        C    0.38900000  0.43200000  0.82160000  0.00000000
C        C    0.43200000  0.04300000  0.17840000  0.00000000
C        C    0.70966667  0.94433333  0.15493333  0.00000000
C        C    0.95700000  0.38900000  0.17840000  0.00000000
C        C    0.05566667  0.76533333  0.15493333  0.00000000
C        C    0.23466667  0.29033333  0.15493333  0.00000000
C        C    0.94433333  0.23466667  0.84506667  0.00000000
C        C    0.61100000  0.56800000  0.17840000  0.00000000
C        C    0.72233333  0.09866667  0.48826667  0.00000000
C        C    0.56800000  0.95700000  0.82160000  0.00000000
C        C    0.27766667  0.90133333  0.51173333  0.00000000
C        C    0.29033333  0.05566667  0.84506667  0.00000000
C        C    0.90133333  0.62366667  0.48826667  0.00000000
C        C    0.37533333  0.23666667  0.49486667  0.00000000
C        C    0.80533333  0.70866667  0.83846667  0.00000000
C        C    0.04200000  0.57000000  0.82820000  0.00000000
C        C    0.62466667  0.76333333  0.50513333  0.00000000
C        C    0.13866667  0.37533333  0.50513333  0.00000000
C        C    0.43000000  0.47200000  0.82820000  0.00000000
C        C    0.47200000  0.04200000  0.17180000  0.00000000
C        C    0.70866667  0.90333333  0.16153333  0.00000000
C        C    0.95800000  0.43000000  0.17180000  0.00000000
C        C    0.09666667  0.80533333  0.16153333  0.00000000
C        C    0.19466667  0.29133333  0.16153333  0.00000000
C        C    0.90333333  0.19466667  0.83846667  0.00000000
C        C    0.57000000  0.52800000  0.17180000  0.00000000
C        C    0.76333333  0.13866667  0.49486667  0.00000000
C        C    0.52800000  0.95800000  0.82820000  0.00000000
C        C    0.23666667  0.86133333  0.50513333  0.00000000
C        C    0.29133333  0.09666667  0.83846667  0.00000000
C        C    0.86133333  0.62466667  0.49486667  0.00000000
H        H    0.38023333  0.22096667  0.49546667  0.00000000
H        H    0.82593333  0.71356667  0.83786667  0.00000000
H        H    0.04690000  0.55430000  0.82880000  0.00000000
H        H    0.61976667  0.77903333  0.50453333  0.00000000
H        H    0.15926667  0.38023333  0.50453333  0.00000000
H        H    0.44570000  0.49260000  0.82880000  0.00000000
H        H    0.49260000  0.04690000  0.17120000  0.00000000
H        H    0.71356667  0.88763333  0.16213333  0.00000000
H        H    0.95310000  0.44570000  0.17120000  0.00000000
H        H    0.11236667  0.82593333  0.16213333  0.00000000
H        H    0.17406667  0.28643333  0.16213333  0.00000000
H        H    0.88763333  0.17406667  0.83786667  0.00000000
H        H    0.55430000  0.50740000  0.17120000  0.00000000
H        H    0.77903333  0.15926667  0.49546667  0.00000000
H        H    0.50740000  0.95310000  0.82880000  0.00000000
H        H    0.22096667  0.84073333  0.50453333  0.00000000
H        H    0.28643333  0.11236667  0.83786667  0.00000000
H        H    0.84073333  0.61976667  0.49546667  0.00000000
C        C    0.38433333  0.25466667  0.48906667  0.00000000
C        C    0.79633333  0.71766667  0.84426667  0.00000000
C        C    0.05100000  0.58800000  0.82240000  0.00000000
C        C    0.61566667  0.74533333  0.51093333  0.00000000
C        C    0.12966667  0.38433333  0.51093333  0.00000000
C        C    0.41200000  0.46300000  0.82240000  0.00000000
C        C    0.46300000  0.05100000  0.17760000  0.00000000
C        C    0.71766667  0.92133333  0.15573333  0.00000000
C        C    0.94900000  0.41200000  0.17760000  0.00000000
C        C    0.07866667  0.79633333  0.15573333  0.00000000
C        C    0.20366667  0.28233333  0.15573333  0.00000000
C        C    0.92133333  0.20366667  0.84426667  0.00000000
C        C    0.58800000  0.53700000  0.17760000  0.00000000
C        C    0.74533333  0.12966667  0.48906667  0.00000000
C        C    0.53700000  0.94900000  0.82240000  0.00000000
C        C    0.25466667  0.87033333  0.51093333  0.00000000
C        C    0.28233333  0.07866667  0.84426667  0.00000000
C        C    0.87033333  0.61566667  0.48906667  0.00000000
H        H    0.39623333  0.25216667  0.48556667  0.00000000
H        H    0.81073333  0.72956667  0.84776667  0.00000000
H        H    0.06290000  0.58550000  0.81890000  0.00000000
H        H    0.60376667  0.74783333  0.51443333  0.00000000
H        H    0.14406667  0.39623333  0.51443333  0.00000000
H        H    0.41450000  0.47740000  0.81890000  0.00000000
H        H    0.47740000  0.06290000  0.18110000  0.00000000
H        H    0.72956667  0.91883333  0.15223333  0.00000000
H        H    0.93710000  0.41450000  0.18110000  0.00000000
H        H    0.08116667  0.81073333  0.15223333  0.00000000
H        H    0.18926667  0.27043333  0.15223333  0.00000000
H        H    0.91883333  0.18926667  0.84776667  0.00000000
H        H    0.58550000  0.52260000  0.18110000  0.00000000
H        H    0.74783333  0.14406667  0.48556667  0.00000000
H        H    0.52260000  0.93710000  0.81890000  0.00000000
H        H    0.25216667  0.85593333  0.51443333  0.00000000
H        H    0.27043333  0.08116667  0.84776667  0.00000000
H        H    0.85593333  0.60376667  0.48556667  0.00000000
C        C    0.34433333  0.19866667  0.51846667  0.00000000
C        C    0.81233333  0.67766667  0.81486667  0.00000000
C        C    0.01100000  0.53200000  0.85180000  0.00000000
C        C    0.65566667  0.80133333  0.48153333  0.00000000
C        C    0.14566667  0.34433333  0.48153333  0.00000000
C        C    0.46800000  0.47900000  0.85180000  0.00000000
C        C    0.47900000  0.01100000  0.14820000  0.00000000
C        C    0.67766667  0.86533333  0.18513333  0.00000000
C        C    0.98900000  0.46800000  0.14820000  0.00000000
C        C    0.13466667  0.81233333  0.18513333  0.00000000
C        C    0.18766667  0.32233333  0.18513333  0.00000000
C        C    0.86533333  0.18766667  0.81486667  0.00000000
C        C    0.53200000  0.52100000  0.14820000  0.00000000
C        C    0.80133333  0.14566667  0.51846667  0.00000000
C        C    0.52100000  0.98900000  0.85180000  0.00000000
C        C    0.19866667  0.85433333  0.48153333  0.00000000
C        C    0.32233333  0.13466667  0.81486667  0.00000000
C        C    0.85433333  0.65566667  0.51846667  0.00000000
C        C    0.34433333  0.21366667  0.52446667  0.00000000
C        C    0.79733333  0.67766667  0.80886667  0.00000000
C        C    0.01100000  0.54700000  0.85780000  0.00000000
C        C    0.65566667  0.78633333  0.47553333  0.00000000
C        C    0.13066667  0.34433333  0.47553333  0.00000000
C        C    0.45300000  0.46400000  0.85780000  0.00000000
C        C    0.46400000  0.01100000  0.14220000  0.00000000
C        C    0.67766667  0.88033333  0.19113333  0.00000000
C        C    0.98900000  0.45300000  0.14220000  0.00000000
C        C    0.11966667  0.79733333  0.19113333  0.00000000
C        C    0.20266667  0.32233333  0.19113333  0.00000000
C        C    0.88033333  0.20266667  0.80886667  0.00000000
C        C    0.54700000  0.53600000  0.14220000  0.00000000
C        C    0.78633333  0.13066667  0.52446667  0.00000000
C        C    0.53600000  0.98900000  0.85780000  0.00000000
C        C    0.21366667  0.86933333  0.47553333  0.00000000
C        C    0.32233333  0.11966667  0.80886667  0.00000000
C        C    0.86933333  0.65566667  0.52446667  0.00000000
H        H    0.34453333  0.23256667  0.52426667  0.00000000
H        H    0.77863333  0.67786667  0.80906667  0.00000000
H        H    0.01120000  0.56590000  0.85760000  0.00000000
H        H    0.65546667  0.76743333  0.47573333  0.00000000
H        H    0.11196667  0.34453333  0.47573333  0.00000000
H        H    0.43410000  0.44530000  0.85760000  0.00000000
H        H    0.44530000  0.01120000  0.14240000  0.00000000
H        H    0.67786667  0.89923333  0.19093333  0.00000000
H        H    0.98880000  0.43410000  0.14240000  0.00000000
H        H    0.10076667  0.77863333  0.19093333  0.00000000
H        H    0.22136667  0.32213333  0.19093333  0.00000000
H        H    0.89923333  0.22136667  0.80906667  0.00000000
H        H    0.56590000  0.55470000  0.14240000  0.00000000
H        H    0.76743333  0.11196667  0.52426667  0.00000000
H        H    0.55470000  0.98880000  0.85760000  0.00000000
H        H    0.23256667  0.88803333  0.47573333  0.00000000
H        H    0.32213333  0.10076667  0.80906667  0.00000000
H        H    0.88803333  0.65546667  0.52426667  0.00000000
C        C    0.34533333  0.20166667  0.53096667  0.00000000
C        C    0.81033333  0.67866667  0.80236667  0.00000000
C        C    0.01200000  0.53500000  0.86430000  0.00000000
C        C    0.65466667  0.79833333  0.46903333  0.00000000
C        C    0.14366667  0.34533333  0.46903333  0.00000000
C        C    0.46500000  0.47700000  0.86430000  0.00000000
C        C    0.47700000  0.01200000  0.13570000  0.00000000
C        C    0.67866667  0.86833333  0.19763333  0.00000000
C        C    0.98800000  0.46500000  0.13570000  0.00000000
C        C    0.13166667  0.81033333  0.19763333  0.00000000
C        C    0.18966667  0.32133333  0.19763333  0.00000000
C        C    0.86833333  0.18966667  0.80236667  0.00000000
C        C    0.53500000  0.52300000  0.13570000  0.00000000
C        C    0.79833333  0.14366667  0.53096667  0.00000000
C        C    0.52300000  0.98800000  0.86430000  0.00000000
C        C    0.20166667  0.85633333  0.46903333  0.00000000
C        C    0.32133333  0.13166667  0.80236667  0.00000000
C        C    0.85633333  0.65466667  0.53096667  0.00000000
C        C    0.34433333  0.17366667  0.53126667  0.00000000
C        C    0.83733333  0.67766667  0.80206667  0.00000000
C        C    0.01100000  0.50700000  0.86460000  0.00000000
C        C    0.65566667  0.82633333  0.46873333  0.00000000
C        C    0.17066667  0.34433333  0.46873333  0.00000000
C        C    0.49300000  0.50400000  0.86460000  0.00000000
C        C    0.50400000  0.01100000  0.13540000  0.00000000
C        C    0.67766667  0.84033333  0.19793333  0.00000000
C        C    0.98900000  0.49300000  0.13540000  0.00000000
C        C    0.15966667  0.83733333  0.19793333  0.00000000
C        C    0.16266667  0.32233333  0.19793333  0.00000000
C        C    0.84033333  0.16266667  0.80206667  0.00000000
C        C    0.50700000  0.49600000  0.13540000  0.00000000
C        C    0.82633333  0.17066667  0.53126667  0.00000000
C        C    0.49600000  0.98900000  0.86460000  0.00000000
C        C    0.17366667  0.82933333  0.46873333  0.00000000
C        C    0.32233333  0.15966667  0.80206667  0.00000000
C        C    0.82933333  0.65566667  0.53126667  0.00000000
H        H    0.34523333  0.16556667  0.53566667  0.00000000
H        H    0.84633333  0.67856667  0.79766667  0.00000000
H        H    0.01190000  0.49890000  0.86900000  0.00000000
H        H    0.65476667  0.83443333  0.46433333  0.00000000
H        H    0.17966667  0.34523333  0.46433333  0.00000000
H        H    0.50110000  0.51300000  0.86900000  0.00000000
H        H    0.51300000  0.01190000  0.13100000  0.00000000
H        H    0.67856667  0.83223333  0.20233333  0.00000000
H        H    0.98810000  0.50110000  0.13100000  0.00000000
H        H    0.16776667  0.84633333  0.20233333  0.00000000
H        H    0.15366667  0.32143333  0.20233333  0.00000000
H        H    0.83223333  0.15366667  0.79766667  0.00000000
H        H    0.49890000  0.48700000  0.13100000  0.00000000
H        H    0.83443333  0.17966667  0.53566667  0.00000000
H        H    0.48700000  0.98810000  0.86900000  0.00000000
H        H    0.16556667  0.82033333  0.46433333  0.00000000
H        H    0.32143333  0.16776667  0.79766667  0.00000000
H        H    0.82033333  0.65476667  0.53566667  0.00000000
C        C    0.34433333  0.15866667  0.52526667  0.00000000
C        C    0.85233333  0.67766667  0.80806667  0.00000000
C        C    0.01100000  0.49200000  0.85860000  0.00000000
C        C    0.65566667  0.84133333  0.47473333  0.00000000
C        C    0.18566667  0.34433333  0.47473333  0.00000000
C        C    0.50800000  0.51900000  0.85860000  0.00000000
C        C    0.51900000  0.01100000  0.14140000  0.00000000
C        C    0.67766667  0.82533333  0.19193333  0.00000000
C        C    0.98900000  0.50800000  0.14140000  0.00000000
C        C    0.17466667  0.85233333  0.19193333  0.00000000
C        C    0.14766667  0.32233333  0.19193333  0.00000000
C        C    0.82533333  0.14766667  0.80806667  0.00000000
C        C    0.49200000  0.48100000  0.14140000  0.00000000
C        C    0.84133333  0.18566667  0.52526667  0.00000000
C        C    0.48100000  0.98900000  0.85860000  0.00000000
C        C    0.15866667  0.81433333  0.47473333  0.00000000
C        C    0.32233333  0.17466667  0.80806667  0.00000000
C        C    0.81433333  0.65566667  0.52526667  0.00000000
C        C    0.34333333  0.17066667  0.51886667  0.00000000
C        C    0.83933333  0.67666667  0.81446667  0.00000000
C        C    0.01000000  0.50400000  0.85220000  0.00000000
C        C    0.65666667  0.82933333  0.48113333  0.00000000
C        C    0.17266667  0.34333333  0.48113333  0.00000000
C        C    0.49600000  0.50600000  0.85220000  0.00000000
C        C    0.50600000  0.01000000  0.14780000  0.00000000
C        C    0.67666667  0.83733333  0.18553333  0.00000000
C        C    0.99000000  0.49600000  0.14780000  0.00000000
C        C    0.16266667  0.83933333  0.18553333  0.00000000
C        C    0.16066667  0.32333333  0.18553333  0.00000000
C        C    0.83733333  0.16066667  0.81446667  0.00000000
C        C    0.50400000  0.49400000  0.14780000  0.00000000
C        C    0.82933333  0.17266667  0.51886667  0.00000000
C        C    0.49400000  0.99000000  0.85220000  0.00000000
C        C    0.17066667  0.82733333  0.48113333  0.00000000
C        C    0.32333333  0.16266667  0.81446667  0.00000000
C        C    0.82733333  0.65666667  0.51886667  0.00000000
H        H    0.34363333  0.16056667  0.51476667  0.00000000
H        H    0.84973333  0.67696667  0.81856667  0.00000000
H        H    0.01030000  0.49390000  0.84810000  0.00000000
H        H    0.65636667  0.83943333  0.48523333  0.00000000
H        H    0.18306667  0.34363333  0.48523333  0.00000000
H        H    0.50610000  0.51640000  0.84810000  0.00000000
H        H    0.51640000  0.01030000  0.15190000  0.00000000
H        H    0.67696667  0.82723333  0.18143333  0.00000000
H        H    0.98970000  0.50610000  0.15190000  0.00000000
H        H    0.17276667  0.84973333  0.18143333  0.00000000
H        H    0.15026667  0.32303333  0.18143333  0.00000000
H        H    0.82723333  0.15026667  0.81856667  0.00000000
H        H    0.49390000  0.48360000  0.15190000  0.00000000
H        H    0.83943333  0.18306667  0.51476667  0.00000000
H        H    0.48360000  0.98970000  0.84810000  0.00000000
H        H    0.16056667  0.81693333  0.48523333  0.00000000
H        H    0.32303333  0.17276667  0.81856667  0.00000000
H        H    0.81693333  0.65636667  0.51476667  0.00000000
C        C    0.35733333  0.08666667  0.52666667  0.00000000
C        C    0.93733333  0.69066667  0.80666667  0.00000000
C        C    0.02400000  0.42000000  0.86000000  0.00000000
C        C    0.64266667  0.91333333  0.47333333  0.00000000
C        C    0.27066667  0.35733333  0.47333333  0.00000000
C        C    0.58000000  0.60400000  0.86000000  0.00000000
C        C    0.60400000  0.02400000  0.14000000  0.00000000
C        C    0.69066667  0.75333333  0.19333333  0.00000000
C        C    0.97600000  0.58000000  0.14000000  0.00000000
C        C    0.24666667  0.93733333  0.19333333  0.00000000
C        C    0.06266667  0.30933333  0.19333333  0.00000000
C        C    0.75333333  0.06266667  0.80666667  0.00000000
C        C    0.42000000  0.39600000  0.14000000  0.00000000
C        C    0.91333333  0.27066667  0.52666667  0.00000000
C        C    0.39600000  0.97600000  0.86000000  0.00000000
C        C    0.08666667  0.72933333  0.47333333  0.00000000
C        C    0.30933333  0.24666667  0.80666667  0.00000000
C        C    0.72933333  0.64266667  0.52666667  0.00000000
C        C    0.35833333  0.07166667  0.52066667  0.00000000
C        C    0.95333333  0.69166667  0.81266667  0.00000000
C        C    0.02500000  0.40500000  0.85400000  0.00000000
C        C    0.64166667  0.92833333  0.47933333  0.00000000
C        C    0.28666667  0.35833333  0.47933333  0.00000000
C        C    0.59500000  0.62000000  0.85400000  0.00000000
C        C    0.62000000  0.02500000  0.14600000  0.00000000
C        C    0.69166667  0.73833333  0.18733333  0.00000000
C        C    0.97500000  0.59500000  0.14600000  0.00000000
C        C    0.26166667  0.95333333  0.18733333  0.00000000
C        C    0.04666667  0.30833333  0.18733333  0.00000000
C        C    0.73833333  0.04666667  0.81266667  0.00000000
C        C    0.40500000  0.38000000  0.14600000  0.00000000
C        C    0.92833333  0.28666667  0.52066667  0.00000000
C        C    0.38000000  0.97500000  0.85400000  0.00000000
C        C    0.07166667  0.71333333  0.47933333  0.00000000
C        C    0.30833333  0.26166667  0.81266667  0.00000000
C        C    0.71333333  0.64166667  0.52066667  0.00000000
H        H    0.35793333  0.07946667  0.51626667  0.00000000
H        H    0.94513333  0.69126667  0.81706667  0.00000000
H        H    0.02460000  0.41280000  0.84960000  0.00000000
H        H    0.64206667  0.92053333  0.48373333  0.00000000
H        H    0.27846667  0.35793333  0.48373333  0.00000000
H        H    0.58720000  0.61180000  0.84960000  0.00000000
H        H    0.61180000  0.02460000  0.15040000  0.00000000
H        H    0.69126667  0.74613333  0.18293333  0.00000000
H        H    0.97540000  0.58720000  0.15040000  0.00000000
H        H    0.25386667  0.94513333  0.18293333  0.00000000
H        H    0.05486667  0.30873333  0.18293333  0.00000000
H        H    0.74613333  0.05486667  0.81706667  0.00000000
H        H    0.41280000  0.38820000  0.15040000  0.00000000
H        H    0.92053333  0.27846667  0.51626667  0.00000000
H        H    0.38820000  0.97540000  0.84960000  0.00000000
H        H    0.07946667  0.72153333  0.48373333  0.00000000
H        H    0.30873333  0.25386667  0.81706667  0.00000000
H        H    0.72153333  0.64206667  0.51626667  0.00000000
C        C    0.36233333  0.04666667  0.52126667  0.00000000
C        C    0.98233333  0.69566667  0.81206667  0.00000000
C        C    0.02900000  0.38000000  0.85460000  0.00000000
C        C    0.63766667  0.95333333  0.47873333  0.00000000
C        C    0.31566667  0.36233333  0.47873333  0.00000000
C        C    0.62000000  0.64900000  0.85460000  0.00000000
C        C    0.64900000  0.02900000  0.14540000  0.00000000
C        C    0.69566667  0.71333333  0.18793333  0.00000000
C        C    0.97100000  0.62000000  0.14540000  0.00000000
C        C    0.28666667  0.98233333  0.18793333  0.00000000
C        C    0.01766667  0.30433333  0.18793333  0.00000000
C        C    0.71333333  0.01766667  0.81206667  0.00000000
C        C    0.38000000  0.35100000  0.14540000  0.00000000
C        C    0.95333333  0.31566667  0.52126667  0.00000000
C        C    0.35100000  0.97100000  0.85460000  0.00000000
C        C    0.04666667  0.68433333  0.47873333  0.00000000
C        C    0.30433333  0.28666667  0.81206667  0.00000000
C        C    0.68433333  0.63766667  0.52126667  0.00000000
H        H    0.36363333  0.03656667  0.51716667  0.00000000
H        H    0.99373333  0.69696667  0.81616667  0.00000000
H        H    0.03030000  0.36990000  0.85050000  0.00000000
H        H    0.63636667  0.96343333  0.48283333  0.00000000
H        H    0.32706667  0.36363333  0.48283333  0.00000000
H        H    0.63010000  0.66040000  0.85050000  0.00000000
H        H    0.66040000  0.03030000  0.14950000  0.00000000
H        H    0.69696667  0.70323333  0.18383333  0.00000000
H        H    0.96970000  0.63010000  0.14950000  0.00000000
H        H    0.29676667  0.99373333  0.18383333  0.00000000
H        H    0.00626667  0.30303333  0.18383333  0.00000000
H        H    0.70323333  0.00626667  0.81616667  0.00000000
H        H    0.36990000  0.33960000  0.14950000  0.00000000
H        H    0.96343333  0.32706667  0.51716667  0.00000000
H        H    0.33960000  0.96970000  0.85050000  0.00000000
H        H    0.03656667  0.67293333  0.48283333  0.00000000
H        H    0.30303333  0.29676667  0.81616667  0.00000000
H        H    0.67293333  0.63636667  0.51716667  0.00000000
C        C    0.36333333  0.03466667  0.52776667  0.00000000
C        C    0.99533333  0.69666667  0.80556667  0.00000000
C        C    0.03000000  0.36800000  0.86110000  0.00000000
C        C    0.63666667  0.96533333  0.47223333  0.00000000
C        C    0.32866667  0.36333333  0.47223333  0.00000000
C        C    0.63200000  0.66200000  0.86110000  0.00000000
C        C    0.66200000  0.03000000  0.13890000  0.00000000
C        C    0.69666667  0.70133333  0.19443333  0.00000000
C        C    0.97000000  0.63200000  0.13890000  0.00000000
C        C    0.29866667  0.99533333  0.19443333  0.00000000
C        C    0.00466667  0.30333333  0.19443333  0.00000000
C        C    0.70133333  0.00466667  0.80556667  0.00000000
C        C    0.36800000  0.33800000  0.13890000  0.00000000
C        C    0.96533333  0.32866667  0.52776667  0.00000000
C        C    0.33800000  0.97000000  0.86110000  0.00000000
C        C    0.03466667  0.67133333  0.47223333  0.00000000
C        C    0.30333333  0.29866667  0.80556667  0.00000000
C        C    0.67133333  0.63666667  0.52776667  0.00000000
C        C    0.36333333  0.05066667  0.53366667  0.00000000
C        C    0.97933333  0.69666667  0.79966667  0.00000000
C        C    0.03000000  0.38400000  0.86700000  0.00000000
C        C    0.63666667  0.94933333  0.46633333  0.00000000
C        C    0.31266667  0.36333333  0.46633333  0.00000000
C        C    0.61600000  0.64600000  0.86700000  0.00000000
C        C    0.64600000  0.03000000  0.13300000  0.00000000
C        C    0.69666667  0.71733333  0.20033333  0.00000000
C        C    0.97000000  0.61600000  0.13300000  0.00000000
C        C    0.28266667  0.97933333  0.20033333  0.00000000
C        C    0.02066667  0.30333333  0.20033333  0.00000000
C        C    0.71733333  0.02066667  0.79966667  0.00000000
C        C    0.38400000  0.35400000  0.13300000  0.00000000
C        C    0.94933333  0.31266667  0.53366667  0.00000000
C        C    0.35400000  0.97000000  0.86700000  0.00000000
C        C    0.05066667  0.68733333  0.46633333  0.00000000
C        C    0.30333333  0.28266667  0.79966667  0.00000000
C        C    0.68733333  0.63666667  0.53366667  0.00000000
H        H    0.36433333  0.04306667  0.53816667  0.00000000
H        H    0.98793333  0.69766667  0.79516667  0.00000000
H        H    0.03100000  0.37640000  0.87150000  0.00000000
H        H    0.63566667  0.95693333  0.46183333  0.00000000
H        H    0.32126667  0.36433333  0.46183333  0.00000000
H        H    0.62360000  0.65460000  0.87150000  0.00000000
H        H    0.65460000  0.03100000  0.12850000  0.00000000
H        H    0.69766667  0.70973333  0.20483333  0.00000000
H        H    0.96900000  0.62360000  0.12850000  0.00000000
H        H    0.29026667  0.98793333  0.20483333  0.00000000
H        H    0.01206667  0.30233333  0.20483333  0.00000000
H        H    0.70973333  0.01206667  0.79516667  0.00000000
H        H    0.37640000  0.34540000  0.12850000  0.00000000
H        H    0.95693333  0.32126667  0.53816667  0.00000000
H        H    0.34540000  0.96900000  0.87150000  0.00000000
H        H    0.04306667  0.67873333  0.46183333  0.00000000
H        H    0.30233333  0.29026667  0.79516667  0.00000000
H        H    0.67873333  0.63566667  0.53816667  0.00000000
C        C    0.35933333  0.07566667  0.53316667  0.00000000
C        C    0.95033333  0.69266667  0.80016667  0.00000000
C        C    0.02600000  0.40900000  0.86650000  0.00000000
C        C    0.64066667  0.92433333  0.46683333  0.00000000
C        C    0.28366667  0.35933333  0.46683333  0.00000000
C        C    0.59100000  0.61700000  0.86650000  0.00000000
C        C    0.61700000  0.02600000  0.13350000  0.00000000
C        C    0.69266667  0.74233333  0.19983333  0.00000000
C        C    0.97400000  0.59100000  0.13350000  0.00000000
C        C    0.25766667  0.95033333  0.19983333  0.00000000
C        C    0.04966667  0.30733333  0.19983333  0.00000000
C        C    0.74233333  0.04966667  0.80016667  0.00000000
C        C    0.40900000  0.38300000  0.13350000  0.00000000
C        C    0.92433333  0.28366667  0.53316667  0.00000000
C        C    0.38300000  0.97400000  0.86650000  0.00000000
C        C    0.07566667  0.71633333  0.46683333  0.00000000
C        C    0.30733333  0.25766667  0.80016667  0.00000000
C        C    0.71633333  0.64066667  0.53316667  0.00000000
H        H    0.35853333  0.08596667  0.53716667  0.00000000
H        H    0.93923333  0.69186667  0.79616667  0.00000000
H        H    0.02520000  0.41930000  0.87050000  0.00000000
H        H    0.64146667  0.91403333  0.46283333  0.00000000
H        H    0.27256667  0.35853333  0.46283333  0.00000000
H        H    0.58070000  0.60590000  0.87050000  0.00000000
H        H    0.60590000  0.02520000  0.12950000  0.00000000
H        H    0.69186667  0.75263333  0.20383333  0.00000000
H        H    0.97480000  0.58070000  0.12950000  0.00000000
H        H    0.24736667  0.93923333  0.20383333  0.00000000
H        H    0.06076667  0.30813333  0.20383333  0.00000000
H        H    0.75263333  0.06076667  0.79616667  0.00000000
H        H    0.41930000  0.39410000  0.12950000  0.00000000
H        H    0.91403333  0.27256667  0.53716667  0.00000000
H        H    0.39410000  0.97480000  0.87050000  0.00000000
H        H    0.08596667  0.72743333  0.46283333  0.00000000
H        H    0.30813333  0.24736667  0.79616667  0.00000000
H        H    0.72743333  0.64146667  0.53716667  0.00000000
C        C    0.36333333  0.00566667  0.52866667  0.00000000
C        C    0.02433333  0.69666667  0.80466667  0.00000000
C        C    0.03000000  0.33900000  0.86200000  0.00000000
C        C    0.63666667  0.99433333  0.47133333  0.00000000
C        C    0.35766667  0.36333333  0.47133333  0.00000000
C        C    0.66100000  0.69100000  0.86200000  0.00000000
C        C    0.69100000  0.03000000  0.13800000  0.00000000
C        C    0.69666667  0.67233333  0.19533333  0.00000000
C        C    0.97000000  0.66100000  0.13800000  0.00000000
C        C    0.32766667  0.02433333  0.19533333  0.00000000
C        C    0.97566667  0.30333333  0.19533333  0.00000000
C        C    0.67233333  0.97566667  0.80466667  0.00000000
C        C    0.33900000  0.30900000  0.13800000  0.00000000
C        C    0.99433333  0.35766667  0.52866667  0.00000000
C        C    0.30900000  0.97000000  0.86200000  0.00000000
C        C    0.00566667  0.64233333  0.47133333  0.00000000
C        C    0.30333333  0.32766667  0.80466667  0.00000000
C        C    0.64233333  0.63666667  0.52866667  0.00000000
C        C    0.36033333  0.24566667  0.54926667  0.00000000
C        C    0.78133333  0.69366667  0.78406667  0.00000000
C        C    0.02700000  0.57900000  0.88260000  0.00000000
C        C    0.63966667  0.75433333  0.45073333  0.00000000
C        C    0.11466667  0.36033333  0.45073333  0.00000000
C        C    0.42100000  0.44800000  0.88260000  0.00000000
C        C    0.44800000  0.02700000  0.11740000  0.00000000
C        C    0.69366667  0.91233333  0.21593333  0.00000000
C        C    0.97300000  0.42100000  0.11740000  0.00000000
C        C    0.08766667  0.78133333  0.21593333  0.00000000
C        C    0.21866667  0.30633333  0.21593333  0.00000000
C        C    0.91233333  0.21866667  0.78406667  0.00000000
C        C    0.57900000  0.55200000  0.11740000  0.00000000
C        C    0.75433333  0.11466667  0.54926667  0.00000000
C        C    0.55200000  0.97300000  0.88260000  0.00000000
C        C    0.24566667  0.88533333  0.45073333  0.00000000
C        C    0.30633333  0.08766667  0.78406667  0.00000000
C        C    0.88533333  0.63966667  0.54926667  0.00000000
C        C    0.36333333  0.28466667  0.55676667  0.00000000
C        C    0.74533333  0.69666667  0.77656667  0.00000000
C        C    0.03000000  0.61800000  0.89010000  0.00000000
C        C    0.63666667  0.71533333  0.44323333  0.00000000
C        C    0.07866667  0.36333333  0.44323333  0.00000000
C        C    0.38200000  0.41200000  0.89010000  0.00000000
C        C    0.41200000  0.03000000  0.10990000  0.00000000
C        C    0.69666667  0.95133333  0.22343333  0.00000000
C        C    0.97000000  0.38200000  0.10990000  0.00000000
C        C    0.04866667  0.74533333  0.22343333  0.00000000
C        C    0.25466667  0.30333333  0.22343333  0.00000000
C        C    0.95133333  0.25466667  0.77656667  0.00000000
C        C    0.61800000  0.58800000  0.10990000  0.00000000
C        C    0.71533333  0.07866667  0.55676667  0.00000000
C        C    0.58800000  0.97000000  0.89010000  0.00000000
C        C    0.28466667  0.92133333  0.44323333  0.00000000
C        C    0.30333333  0.04866667  0.77656667  0.00000000
C        C    0.92133333  0.63666667  0.55676667  0.00000000
H        H    0.35903333  0.30066667  0.55756667  0.00000000
H        H    0.72503333  0.69236667  0.77576667  0.00000000
H        H    0.02570000  0.63400000  0.89090000  0.00000000
H        H    0.64096667  0.69933333  0.44243333  0.00000000
H        H    0.05836667  0.35903333  0.44243333  0.00000000
H        H    0.36600000  0.39170000  0.89090000  0.00000000
H        H    0.39170000  0.02570000  0.10910000  0.00000000
H        H    0.69236667  0.96733333  0.22423333  0.00000000
H        H    0.97430000  0.36600000  0.10910000  0.00000000
H        H    0.03266667  0.72503333  0.22423333  0.00000000
H        H    0.27496667  0.30763333  0.22423333  0.00000000
H        H    0.96733333  0.27496667  0.77576667  0.00000000
H        H    0.63400000  0.60830000  0.10910000  0.00000000
H        H    0.69933333  0.05836667  0.55756667  0.00000000
H        H    0.60830000  0.97430000  0.89090000  0.00000000
H        H    0.30066667  0.94163333  0.44243333  0.00000000
H        H    0.30763333  0.03266667  0.77576667  0.00000000
H        H    0.94163333  0.64096667  0.55756667  0.00000000
C        C    0.35533333  0.26966667  0.55046667  0.00000000
C        C    0.75233333  0.68866667  0.78286667  0.00000000
C        C    0.02200000  0.60300000  0.88380000  0.00000000
C        C    0.64466667  0.73033333  0.44953333  0.00000000
C        C    0.08566667  0.35533333  0.44953333  0.00000000
C        C    0.39700000  0.41900000  0.88380000  0.00000000
C        C    0.41900000  0.02200000  0.11620000  0.00000000
C        C    0.68866667  0.93633333  0.21713333  0.00000000
C        C    0.97800000  0.39700000  0.11620000  0.00000000
C        C    0.06366667  0.75233333  0.21713333  0.00000000
C        C    0.24766667  0.31133333  0.21713333  0.00000000
C        C    0.93633333  0.24766667  0.78286667  0.00000000
C        C    0.60300000  0.58100000  0.11620000  0.00000000
C        C    0.73033333  0.08566667  0.55046667  0.00000000
C        C    0.58100000  0.97800000  0.88380000  0.00000000
C        C    0.26966667  0.91433333  0.44953333  0.00000000
C        C    0.31133333  0.06366667  0.78286667  0.00000000
C        C    0.91433333  0.64466667  0.55046667  0.00000000
H        H    0.34593333  0.27556667  0.54696667  0.00000000
H        H    0.73703333  0.67926667  0.78636667  0.00000000
H        H    0.01260000  0.60890000  0.88030000  0.00000000
H        H    0.65406667  0.72443333  0.45303333  0.00000000
H        H    0.07036667  0.34593333  0.45303333  0.00000000
H        H    0.39110000  0.40370000  0.88030000  0.00000000
H        H    0.40370000  0.01260000  0.11970000  0.00000000
H        H    0.67926667  0.94223333  0.21363333  0.00000000
H        H    0.98740000  0.39110000  0.11970000  0.00000000
H        H    0.05776667  0.73703333  0.21363333  0.00000000
H        H    0.26296667  0.32073333  0.21363333  0.00000000
H        H    0.94223333  0.26296667  0.78636667  0.00000000
H        H    0.60890000  0.59630000  0.11970000  0.00000000
H        H    0.72443333  0.07036667  0.54696667  0.00000000
H        H    0.59630000  0.98740000  0.88030000  0.00000000
H        H    0.27556667  0.92963333  0.45303333  0.00000000
H        H    0.32073333  0.05776667  0.78636667  0.00000000
H        H    0.92963333  0.65406667  0.54696667  0.00000000
C        C    0.35733333  0.27966667  0.49316667  0.00000000
C        C    0.74433333  0.69066667  0.84016667  0.00000000
C        C    0.02400000  0.61300000  0.82650000  0.00000000
C        C    0.64266667  0.72033333  0.50683333  0.00000000
C        C    0.07766667  0.35733333  0.50683333  0.00000000
C        C    0.38700000  0.41100000  0.82650000  0.00000000
C        C    0.41100000  0.02400000  0.17350000  0.00000000
C        C    0.69066667  0.94633333  0.15983333  0.00000000
C        C    0.97600000  0.38700000  0.17350000  0.00000000
C        C    0.05366667  0.74433333  0.15983333  0.00000000
C        C    0.25566667  0.30933333  0.15983333  0.00000000
C        C    0.94633333  0.25566667  0.84016667  0.00000000
C        C    0.61300000  0.58900000  0.17350000  0.00000000
C        C    0.72033333  0.07766667  0.49316667  0.00000000
C        C    0.58900000  0.97600000  0.82650000  0.00000000
C        C    0.27966667  0.92233333  0.50683333  0.00000000
C        C    0.30933333  0.05366667  0.84016667  0.00000000
C        C    0.92233333  0.64266667  0.49316667  0.00000000
H        H    0.35113333  0.29466667  0.49246667  0.00000000
H        H    0.72313333  0.68446667  0.84086667  0.00000000
H        H    0.01780000  0.62800000  0.82580000  0.00000000
H        H    0.64886667  0.70533333  0.50753333  0.00000000
H        H    0.05646667  0.35113333  0.50753333  0.00000000
H        H    0.37200000  0.38980000  0.82580000  0.00000000
H        H    0.38980000  0.01780000  0.17420000  0.00000000
H        H    0.68446667  0.96133333  0.15913333  0.00000000
H        H    0.98220000  0.37200000  0.17420000  0.00000000
H        H    0.03866667  0.72313333  0.15913333  0.00000000
H        H    0.27686667  0.31553333  0.15913333  0.00000000
H        H    0.96133333  0.27686667  0.84086667  0.00000000
H        H    0.62800000  0.61020000  0.17420000  0.00000000
H        H    0.70533333  0.05646667  0.49246667  0.00000000
H        H    0.61020000  0.98220000  0.82580000  0.00000000
H        H    0.29466667  0.94353333  0.50753333  0.00000000
H        H    0.31553333  0.03866667  0.84086667  0.00000000
H        H    0.94353333  0.64886667  0.49246667  0.00000000
C        C    0.34833333  0.26166667  0.49896667  0.00000000
C        C    0.75333333  0.68166667  0.83436667  0.00000000
C        C    0.01500000  0.59500000  0.83230000  0.00000000
C        C    0.65166667  0.73833333  0.50103333  0.00000000
C        C    0.08666667  0.34833333  0.50103333  0.00000000
C        C    0.40500000  0.42000000  0.83230000  0.00000000
C        C    0.42000000  0.01500000  0.16770000  0.00000000
C        C    0.68166667  0.92833333  0.16563333  0.00000000
C        C    0.98500000  0.40500000  0.16770000  0.00000000
C        C    0.07166667  0.75333333  0.16563333  0.00000000
C        C    0.24666667  0.31833333  0.16563333  0.00000000
C        C    0.92833333  0.24666667  0.83436667  0.00000000
C        C    0.59500000  0.58000000  0.16770000  0.00000000
C        C    0.73833333  0.08666667  0.49896667  0.00000000
C        C    0.58000000  0.98500000  0.83230000  0.00000000
C        C    0.26166667  0.91333333  0.50103333  0.00000000
C        C    0.31833333  0.07166667  0.83436667  0.00000000
C        C    0.91333333  0.65166667  0.49896667  0.00000000
H        H    0.33513333  0.26336667  0.50226667  0.00000000
H        H    0.73843333  0.66846667  0.83106667  0.00000000
H        H    0.00180000  0.59670000  0.83560000  0.00000000
H        H    0.66486667  0.73663333  0.49773333  0.00000000
H        H    0.07176667  0.33513333  0.49773333  0.00000000
H        H    0.40330000  0.40510000  0.83560000  0.00000000
H        H    0.40510000  0.00180000  0.16440000  0.00000000
H        H    0.66846667  0.93003333  0.16893333  0.00000000
H        H    0.99820000  0.40330000  0.16440000  0.00000000
H        H    0.06996667  0.73843333  0.16893333  0.00000000
H        H    0.26156667  0.33153333  0.16893333  0.00000000
H        H    0.93003333  0.26156667  0.83106667  0.00000000
H        H    0.59670000  0.59490000  0.16440000  0.00000000
H        H    0.73663333  0.07176667  0.50226667  0.00000000
H        H    0.59490000  0.99820000  0.83560000  0.00000000
H        H    0.26336667  0.92823333  0.49773333  0.00000000
H        H    0.33153333  0.06996667  0.83106667  0.00000000
H        H    0.92823333  0.66486667  0.50226667  0.00000000
C        C    0.35633333  0.23966667  0.49986667  0.00000000
C        C    0.78333333  0.68966667  0.83346667  0.00000000
C        C    0.02300000  0.57300000  0.83320000  0.00000000
C        C    0.64366667  0.76033333  0.50013333  0.00000000
C        C    0.11666667  0.35633333  0.50013333  0.00000000
C        C    0.42700000  0.45000000  0.83320000  0.00000000
C        C    0.45000000  0.02300000  0.16680000  0.00000000
C        C    0.68966667  0.90633333  0.16653333  0.00000000
C        C    0.97700000  0.42700000  0.16680000  0.00000000
C        C    0.09366667  0.78333333  0.16653333  0.00000000
C        C    0.21666667  0.31033333  0.16653333  0.00000000
C        C    0.90633333  0.21666667  0.83346667  0.00000000
C        C    0.57300000  0.55000000  0.16680000  0.00000000
C        C    0.76033333  0.11666667  0.49986667  0.00000000
C        C    0.55000000  0.97700000  0.83320000  0.00000000
C        C    0.23966667  0.88333333  0.50013333  0.00000000
C        C    0.31033333  0.09366667  0.83346667  0.00000000
C        C    0.88333333  0.64366667  0.49986667  0.00000000
C        C    0.34833333  0.21766667  0.53716667  0.00000000
C        C    0.79733333  0.68166667  0.79616667  0.00000000
C        C    0.01500000  0.55100000  0.87050000  0.00000000
C        C    0.65166667  0.78233333  0.46283333  0.00000000
C        C    0.13066667  0.34833333  0.46283333  0.00000000
C        C    0.44900000  0.46400000  0.87050000  0.00000000
C        C    0.46400000  0.01500000  0.12950000  0.00000000
C        C    0.68166667  0.88433333  0.20383333  0.00000000
C        C    0.98500000  0.44900000  0.12950000  0.00000000
C        C    0.11566667  0.79733333  0.20383333  0.00000000
C        C    0.20266667  0.31833333  0.20383333  0.00000000
C        C    0.88433333  0.20266667  0.79616667  0.00000000
C        C    0.55100000  0.53600000  0.12950000  0.00000000
C        C    0.78233333  0.13066667  0.53716667  0.00000000
C        C    0.53600000  0.98500000  0.87050000  0.00000000
C        C    0.21766667  0.86933333  0.46283333  0.00000000
C        C    0.31833333  0.11566667  0.79616667  0.00000000
C        C    0.86933333  0.65166667  0.53716667  0.00000000
C        C    0.35333333  0.23066667  0.54266667  0.00000000
C        C    0.78933333  0.68666667  0.79066667  0.00000000
C        C    0.02000000  0.56400000  0.87600000  0.00000000
C        C    0.64666667  0.76933333  0.45733333  0.00000000
C        C    0.12266667  0.35333333  0.45733333  0.00000000
C        C    0.43600000  0.45600000  0.87600000  0.00000000
C        C    0.45600000  0.02000000  0.12400000  0.00000000
C        C    0.68666667  0.89733333  0.20933333  0.00000000
C        C    0.98000000  0.43600000  0.12400000  0.00000000
C        C    0.10266667  0.78933333  0.20933333  0.00000000
C        C    0.21066667  0.31333333  0.20933333  0.00000000
C        C    0.89733333  0.21066667  0.79066667  0.00000000
C        C    0.56400000  0.54400000  0.12400000  0.00000000
C        C    0.76933333  0.12266667  0.54266667  0.00000000
C        C    0.54400000  0.98000000  0.87600000  0.00000000
C        C    0.23066667  0.87733333  0.45733333  0.00000000
C        C    0.31333333  0.10266667  0.79066667  0.00000000
C        C    0.87733333  0.64666667  0.54266667  0.00000000
C        C    0.35233333  0.11166667  0.52606667  0.00000000
C        C    0.90733333  0.68566667  0.80726667  0.00000000
C        C    0.01900000  0.44500000  0.85940000  0.00000000
C        C    0.64766667  0.88833333  0.47393333  0.00000000
C        C    0.24066667  0.35233333  0.47393333  0.00000000
C        C    0.55500000  0.57400000  0.85940000  0.00000000
C        C    0.57400000  0.01900000  0.14060000  0.00000000
C        C    0.68566667  0.77833333  0.19273333  0.00000000
C        C    0.98100000  0.55500000  0.14060000  0.00000000
C        C    0.22166667  0.90733333  0.19273333  0.00000000
C        C    0.09266667  0.31433333  0.19273333  0.00000000
C        C    0.77833333  0.09266667  0.80726667  0.00000000
C        C    0.44500000  0.42600000  0.14060000  0.00000000
C        C    0.88833333  0.24066667  0.52606667  0.00000000
C        C    0.42600000  0.98100000  0.85940000  0.00000000
C        C    0.11166667  0.75933333  0.47393333  0.00000000
C        C    0.31433333  0.22166667  0.80726667  0.00000000
C        C    0.75933333  0.64766667  0.52606667  0.00000000
C        C    0.34833333  0.13266667  0.52566667  0.00000000
C        C    0.88233333  0.68166667  0.80766667  0.00000000
C        C    0.01500000  0.46600000  0.85900000  0.00000000
C        C    0.65166667  0.86733333  0.47433333  0.00000000
C        C    0.21566667  0.34833333  0.47433333  0.00000000
C        C    0.53400000  0.54900000  0.85900000  0.00000000
C        C    0.54900000  0.01500000  0.14100000  0.00000000
C        C    0.68166667  0.79933333  0.19233333  0.00000000
C        C    0.98500000  0.53400000  0.14100000  0.00000000
C        C    0.20066667  0.88233333  0.19233333  0.00000000
C        C    0.11766667  0.31833333  0.19233333  0.00000000
C        C    0.79933333  0.11766667  0.80766667  0.00000000
C        C    0.46600000  0.45100000  0.14100000  0.00000000
C        C    0.86733333  0.21566667  0.52566667  0.00000000
C        C    0.45100000  0.98500000  0.85900000  0.00000000
C        C    0.13266667  0.78433333  0.47433333  0.00000000
C        C    0.31833333  0.20066667  0.80766667  0.00000000
C        C    0.78433333  0.65166667  0.52566667  0.00000000
C        C    0.35133333  0.22466667  0.50636667  0.00000000
C        C    0.79333333  0.68466667  0.82696667  0.00000000
C        C    0.01800000  0.55800000  0.83970000  0.00000000
C        C    0.64866667  0.77533333  0.49363333  0.00000000
C        C    0.12666667  0.35133333  0.49363333  0.00000000
C        C    0.44200000  0.46000000  0.83970000  0.00000000
C        C    0.46000000  0.01800000  0.16030000  0.00000000
C        C    0.68466667  0.89133333  0.17303333  0.00000000
C        C    0.98200000  0.44200000  0.16030000  0.00000000
C        C    0.10866667  0.79333333  0.17303333  0.00000000
C        C    0.20666667  0.31533333  0.17303333  0.00000000
C        C    0.89133333  0.20666667  0.82696667  0.00000000
C        C    0.55800000  0.54000000  0.16030000  0.00000000
C        C    0.77533333  0.12666667  0.50636667  0.00000000
C        C    0.54000000  0.98200000  0.83970000  0.00000000
C        C    0.22466667  0.87333333  0.49363333  0.00000000
C        C    0.31533333  0.10866667  0.82696667  0.00000000
C        C    0.87333333  0.64866667  0.50636667  0.00000000
C        C    0.34733333  0.21266667  0.51186667  0.00000000
C        C    0.80133333  0.68066667  0.82146667  0.00000000
C        C    0.01400000  0.54600000  0.84520000  0.00000000
C        C    0.65266667  0.78733333  0.48813333  0.00000000
C        C    0.13466667  0.34733333  0.48813333  0.00000000
C        C    0.45400000  0.46800000  0.84520000  0.00000000
C        C    0.46800000  0.01400000  0.15480000  0.00000000
C        C    0.68066667  0.87933333  0.17853333  0.00000000
C        C    0.98600000  0.45400000  0.15480000  0.00000000
C        C    0.12066667  0.80133333  0.17853333  0.00000000
C        C    0.19866667  0.31933333  0.17853333  0.00000000
C        C    0.87933333  0.19866667  0.82146667  0.00000000
C        C    0.54600000  0.53200000  0.15480000  0.00000000
C        C    0.78733333  0.13466667  0.51186667  0.00000000
C        C    0.53200000  0.98600000  0.84520000  0.00000000
C        C    0.21266667  0.86533333  0.48813333  0.00000000
C        C    0.31933333  0.12066667  0.82146667  0.00000000
C        C    0.86533333  0.65266667  0.51186667  0.00000000
C        C    0.37233333  0.23566667  0.55436667  0.00000000
C        C    0.80333333  0.70566667  0.77896667  0.00000000
C        C    0.03900000  0.56900000  0.88770000  0.00000000
C        C    0.62766667  0.76433333  0.44563333  0.00000000
C        C    0.13666667  0.37233333  0.44563333  0.00000000
C        C    0.43100000  0.47000000  0.88770000  0.00000000
C        C    0.47000000  0.03900000  0.11230000  0.00000000
C        C    0.70566667  0.90233333  0.22103333  0.00000000
C        C    0.96100000  0.43100000  0.11230000  0.00000000
C        C    0.09766667  0.80333333  0.22103333  0.00000000
C        C    0.19666667  0.29433333  0.22103333  0.00000000
C        C    0.90233333  0.19666667  0.77896667  0.00000000
C        C    0.56900000  0.53000000  0.11230000  0.00000000
C        C    0.76433333  0.13666667  0.55436667  0.00000000
C        C    0.53000000  0.96100000  0.88770000  0.00000000
C        C    0.23566667  0.86333333  0.44563333  0.00000000
C        C    0.29433333  0.09766667  0.77896667  0.00000000
C        C    0.86333333  0.62766667  0.55436667  0.00000000
H        H    0.37583333  0.21906667  0.55356667  0.00000000
H        H    0.82343333  0.70916667  0.77976667  0.00000000
H        H    0.04250000  0.55240000  0.88690000  0.00000000
H        H    0.62416667  0.78093333  0.44643333  0.00000000
H        H    0.15676667  0.37583333  0.44643333  0.00000000
H        H    0.44760000  0.49010000  0.88690000  0.00000000
H        H    0.49010000  0.04250000  0.11310000  0.00000000
H        H    0.70916667  0.88573333  0.22023333  0.00000000
H        H    0.95750000  0.44760000  0.11310000  0.00000000
H        H    0.11426667  0.82343333  0.22023333  0.00000000
H        H    0.17656667  0.29083333  0.22023333  0.00000000
H        H    0.88573333  0.17656667  0.77976667  0.00000000
H        H    0.55240000  0.50990000  0.11310000  0.00000000
H        H    0.78093333  0.15676667  0.55356667  0.00000000
H        H    0.50990000  0.95750000  0.88690000  0.00000000
H        H    0.21906667  0.84323333  0.44643333  0.00000000
H        H    0.29083333  0.11426667  0.77976667  0.00000000
H        H    0.84323333  0.62416667  0.55356667  0.00000000
C        C    0.38033333  0.25066667  0.56076667  0.00000000
C        C    0.79633333  0.71366667  0.77256667  0.00000000
C        C    0.04700000  0.58400000  0.89410000  0.00000000
C        C    0.61966667  0.74933333  0.43923333  0.00000000
C        C    0.12966667  0.38033333  0.43923333  0.00000000
C        C    0.41600000  0.46300000  0.89410000  0.00000000
C        C    0.46300000  0.04700000  0.10590000  0.00000000
C        C    0.71366667  0.91733333  0.22743333  0.00000000
C        C    0.95300000  0.41600000  0.10590000  0.00000000
C        C    0.08266667  0.79633333  0.22743333  0.00000000
C        C    0.20366667  0.28633333  0.22743333  0.00000000
C        C    0.91733333  0.20366667  0.77256667  0.00000000
C        C    0.58400000  0.53700000  0.10590000  0.00000000
C        C    0.74933333  0.12966667  0.56076667  0.00000000
C        C    0.53700000  0.95300000  0.89410000  0.00000000
C        C    0.25066667  0.87033333  0.43923333  0.00000000
C        C    0.28633333  0.08266667  0.77256667  0.00000000
C        C    0.87033333  0.61966667  0.56076667  0.00000000
H        H    0.38913333  0.24416667  0.56426667  0.00000000
H        H    0.81163333  0.72246667  0.76906667  0.00000000
H        H    0.05580000  0.57750000  0.89760000  0.00000000
H        H    0.61086667  0.75583333  0.43573333  0.00000000
H        H    0.14496667  0.38913333  0.43573333  0.00000000
H        H    0.42250000  0.47830000  0.89760000  0.00000000
H        H    0.47830000  0.05580000  0.10240000  0.00000000
H        H    0.72246667  0.91083333  0.23093333  0.00000000
H        H    0.94420000  0.42250000  0.10240000  0.00000000
H        H    0.08916667  0.81163333  0.23093333  0.00000000
H        H    0.18836667  0.27753333  0.23093333  0.00000000
H        H    0.91083333  0.18836667  0.76906667  0.00000000
H        H    0.57750000  0.52170000  0.10240000  0.00000000
H        H    0.75583333  0.14496667  0.56426667  0.00000000
H        H    0.52170000  0.94420000  0.89760000  0.00000000
H        H    0.24416667  0.85503333  0.43573333  0.00000000
H        H    0.27753333  0.08916667  0.76906667  0.00000000
H        H    0.85503333  0.61086667  0.56426667  0.00000000
C        C    0.38733333  0.30566667  0.45736667  0.00000000
C        C    0.74833333  0.72066667  0.87596667  0.00000000
C        C    0.05400000  0.63900000  0.79070000  0.00000000
C        C    0.61266667  0.69433333  0.54263333  0.00000000
C        C    0.08166667  0.38733333  0.54263333  0.00000000
C        C    0.36100000  0.41500000  0.79070000  0.00000000
C        C    0.41500000  0.05400000  0.20930000  0.00000000
C        C    0.72066667  0.97233333  0.12403333  0.00000000
C        C    0.94600000  0.36100000  0.20930000  0.00000000
C        C    0.02766667  0.74833333  0.12403333  0.00000000
C        C    0.25166667  0.27933333  0.12403333  0.00000000
C        C    0.97233333  0.25166667  0.87596667  0.00000000
C        C    0.63900000  0.58500000  0.20930000  0.00000000
C        C    0.69433333  0.08166667  0.45736667  0.00000000
C        C    0.58500000  0.94600000  0.79070000  0.00000000
C        C    0.30566667  0.91833333  0.54263333  0.00000000
C        C    0.27933333  0.02766667  0.87596667  0.00000000
C        C    0.91833333  0.61266667  0.45736667  0.00000000
C        C    0.37433333  0.28466667  0.45156667  0.00000000
C        C    0.75633333  0.70766667  0.88176667  0.00000000
C        C    0.04100000  0.61800000  0.78490000  0.00000000
C        C    0.62566667  0.71533333  0.54843333  0.00000000
C        C    0.08966667  0.37433333  0.54843333  0.00000000
C        C    0.38200000  0.42300000  0.78490000  0.00000000
C        C    0.42300000  0.04100000  0.21510000  0.00000000
C        C    0.70766667  0.95133333  0.11823333  0.00000000
C        C    0.95900000  0.38200000  0.21510000  0.00000000
C        C    0.04866667  0.75633333  0.11823333  0.00000000
C        C    0.24366667  0.29233333  0.11823333  0.00000000
C        C    0.95133333  0.24366667  0.88176667  0.00000000
C        C    0.61800000  0.57700000  0.21510000  0.00000000
C        C    0.71533333  0.08966667  0.45156667  0.00000000
C        C    0.57700000  0.95900000  0.78490000  0.00000000
C        C    0.28466667  0.91033333  0.54843333  0.00000000
C        C    0.29233333  0.04866667  0.88176667  0.00000000
C        C    0.91033333  0.62566667  0.45156667  0.00000000
C        C    0.36733333  0.23966667  0.44546667  0.00000000
C        C    0.79433333  0.70066667  0.88786667  0.00000000
C        C    0.03400000  0.57300000  0.77880000  0.00000000
C        C    0.63266667  0.76033333  0.55453333  0.00000000
C        C    0.12766667  0.36733333  0.55453333  0.00000000
C        C    0.42700000  0.46100000  0.77880000  0.00000000
C        C    0.46100000  0.03400000  0.22120000  0.00000000
C        C    0.70066667  0.90633333  0.11213333  0.00000000
C        C    0.96600000  0.42700000  0.22120000  0.00000000
C        C    0.09366667  0.79433333  0.11213333  0.00000000
C        C    0.20566667  0.29933333  0.11213333  0.00000000
C        C    0.90633333  0.20566667  0.88786667  0.00000000
C        C    0.57300000  0.53900000  0.22120000  0.00000000
C        C    0.76033333  0.12766667  0.44546667  0.00000000
C        C    0.53900000  0.96600000  0.77880000  0.00000000
C        C    0.23966667  0.87233333  0.55453333  0.00000000
C        C    0.29933333  0.09366667  0.88786667  0.00000000
C        C    0.87233333  0.63266667  0.44546667  0.00000000
H        H    0.36823333  0.22146667  0.44536667  0.00000000
H        H    0.81343333  0.70156667  0.88796667  0.00000000
H        H    0.03490000  0.55480000  0.77870000  0.00000000
H        H    0.63176667  0.77853333  0.55463333  0.00000000
H        H    0.14676667  0.36823333  0.55463333  0.00000000
H        H    0.44520000  0.48010000  0.77870000  0.00000000
H        H    0.48010000  0.03490000  0.22130000  0.00000000
H        H    0.70156667  0.88813333  0.11203333  0.00000000
H        H    0.96510000  0.44520000  0.22130000  0.00000000
H        H    0.11186667  0.81343333  0.11203333  0.00000000
H        H    0.18656667  0.29843333  0.11203333  0.00000000
H        H    0.88813333  0.18656667  0.88796667  0.00000000
H        H    0.55480000  0.51990000  0.22130000  0.00000000
H        H    0.77853333  0.14676667  0.44536667  0.00000000
H        H    0.51990000  0.96510000  0.77870000  0.00000000
H        H    0.22146667  0.85323333  0.55463333  0.00000000
H        H    0.29843333  0.11186667  0.88796667  0.00000000
H        H    0.85323333  0.63176667  0.44536667  0.00000000
C        C    0.37533333  0.25766667  0.45136667  0.00000000
C        C    0.78433333  0.70866667  0.88196667  0.00000000
C        C    0.04200000  0.59100000  0.78470000  0.00000000
C        C    0.62466667  0.74233333  0.54863333  0.00000000
C        C    0.11766667  0.37533333  0.54863333  0.00000000
C        C    0.40900000  0.45100000  0.78470000  0.00000000
C        C    0.45100000  0.04200000  0.21530000  0.00000000
C        C    0.70866667  0.92433333  0.11803333  0.00000000
C        C    0.95800000  0.40900000  0.21530000  0.00000000
C        C    0.07566667  0.78433333  0.11803333  0.00000000
C        C    0.21566667  0.29133333  0.11803333  0.00000000
C        C    0.92433333  0.21566667  0.88196667  0.00000000
C        C    0.59100000  0.54900000  0.21530000  0.00000000
C        C    0.74233333  0.11766667  0.45136667  0.00000000
C        C    0.54900000  0.95800000  0.78470000  0.00000000
C        C    0.25766667  0.88233333  0.54863333  0.00000000
C        C    0.29133333  0.07566667  0.88196667  0.00000000
C        C    0.88233333  0.62466667  0.45136667  0.00000000
H        H    0.38213333  0.25126667  0.45526667  0.00000000
H        H    0.79753333  0.71546667  0.87806667  0.00000000
H        H    0.04880000  0.58460000  0.78860000  0.00000000
H        H    0.61786667  0.74873333  0.54473333  0.00000000
H        H    0.13086667  0.38213333  0.54473333  0.00000000
H        H    0.41540000  0.46420000  0.78860000  0.00000000
H        H    0.46420000  0.04880000  0.21140000  0.00000000
H        H    0.71546667  0.91793333  0.12193333  0.00000000
H        H    0.95120000  0.41540000  0.21140000  0.00000000
H        H    0.08206667  0.79753333  0.12193333  0.00000000
H        H    0.20246667  0.28453333  0.12193333  0.00000000
H        H    0.91793333  0.20246667  0.87806667  0.00000000
H        H    0.58460000  0.53580000  0.21140000  0.00000000
H        H    0.74873333  0.13086667  0.45526667  0.00000000
H        H    0.53580000  0.95120000  0.78860000  0.00000000
H        H    0.25126667  0.86913333  0.54473333  0.00000000
H        H    0.28453333  0.08206667  0.87806667  0.00000000
H        H    0.86913333  0.61786667  0.45526667  0.00000000
C        C    0.35033333  0.20566667  0.42156667  0.00000000
C        C    0.81133333  0.68366667  0.91176667  0.00000000
C        C    0.01700000  0.53900000  0.75490000  0.00000000
C        C    0.64966667  0.79433333  0.57843333  0.00000000
C        C    0.14466667  0.35033333  0.57843333  0.00000000
C        C    0.46100000  0.47800000  0.75490000  0.00000000
C        C    0.47800000  0.01700000  0.24510000  0.00000000
C        C    0.68366667  0.87233333  0.08823333  0.00000000
C        C    0.98300000  0.46100000  0.24510000  0.00000000
C        C    0.12766667  0.81133333  0.08823333  0.00000000
C        C    0.18866667  0.31633333  0.08823333  0.00000000
C        C    0.87233333  0.18866667  0.91176667  0.00000000
C        C    0.53900000  0.52200000  0.24510000  0.00000000
C        C    0.79433333  0.14466667  0.42156667  0.00000000
C        C    0.52200000  0.98300000  0.75490000  0.00000000
C        C    0.20566667  0.85533333  0.57843333  0.00000000
C        C    0.31633333  0.12766667  0.91176667  0.00000000
C        C    0.85533333  0.64966667  0.42156667  0.00000000
C        C    0.34833333  0.21866667  0.41536667  0.00000000
C        C    0.79633333  0.68166667  0.91796667  0.00000000
C        C    0.01500000  0.55200000  0.74870000  0.00000000
C        C    0.65166667  0.78133333  0.58463333  0.00000000
C        C    0.12966667  0.34833333  0.58463333  0.00000000
C        C    0.44800000  0.46300000  0.74870000  0.00000000
C        C    0.46300000  0.01500000  0.25130000  0.00000000
C        C    0.68166667  0.88533333  0.08203333  0.00000000
C        C    0.98500000  0.44800000  0.25130000  0.00000000
C        C    0.11466667  0.79633333  0.08203333  0.00000000
C        C    0.20366667  0.31833333  0.08203333  0.00000000
C        C    0.88533333  0.20366667  0.91796667  0.00000000
C        C    0.55200000  0.53700000  0.25130000  0.00000000
C        C    0.78133333  0.12966667  0.41536667  0.00000000
C        C    0.53700000  0.98500000  0.74870000  0.00000000
C        C    0.21866667  0.87033333  0.58463333  0.00000000
C        C    0.31833333  0.11466667  0.91796667  0.00000000
C        C    0.87033333  0.65166667  0.41536667  0.00000000
H        H    0.34803333  0.23716667  0.41536667  0.00000000
H        H    0.77753333  0.68136667  0.91796667  0.00000000
H        H    0.01470000  0.57050000  0.74870000  0.00000000
H        H    0.65196667  0.76283333  0.58463333  0.00000000
H        H    0.11086667  0.34803333  0.58463333  0.00000000
H        H    0.42950000  0.44420000  0.74870000  0.00000000
H        H    0.44420000  0.01470000  0.25130000  0.00000000
H        H    0.68136667  0.90383333  0.08203333  0.00000000
H        H    0.98530000  0.42950000  0.25130000  0.00000000
H        H    0.09616667  0.77753333  0.08203333  0.00000000
H        H    0.22246667  0.31863333  0.08203333  0.00000000
H        H    0.90383333  0.22246667  0.91796667  0.00000000
H        H    0.57050000  0.55580000  0.25130000  0.00000000
H        H    0.76283333  0.11086667  0.41536667  0.00000000
H        H    0.55580000  0.98530000  0.74870000  0.00000000
H        H    0.23716667  0.88913333  0.58463333  0.00000000
H        H    0.31863333  0.09616667  0.91796667  0.00000000
H        H    0.88913333  0.65196667  0.41536667  0.00000000
C        C    0.34633333  0.20366667  0.40916667  0.00000000
C        C    0.80933333  0.67966667  0.92416667  0.00000000
C        C    0.01300000  0.53700000  0.74250000  0.00000000
C        C    0.65366667  0.79633333  0.59083333  0.00000000
C        C    0.14266667  0.34633333  0.59083333  0.00000000
C        C    0.46300000  0.47600000  0.74250000  0.00000000
C        C    0.47600000  0.01300000  0.25750000  0.00000000
C        C    0.67966667  0.87033333  0.07583333  0.00000000
C        C    0.98700000  0.46300000  0.25750000  0.00000000
C        C    0.12966667  0.80933333  0.07583333  0.00000000
C        C    0.19066667  0.32033333  0.07583333  0.00000000
C        C    0.87033333  0.19066667  0.92416667  0.00000000
C        C    0.53700000  0.52400000  0.25750000  0.00000000
C        C    0.79633333  0.14266667  0.40916667  0.00000000
C        C    0.52400000  0.98700000  0.74250000  0.00000000
C        C    0.20366667  0.85733333  0.59083333  0.00000000
C        C    0.32033333  0.12966667  0.92416667  0.00000000
C        C    0.85733333  0.65366667  0.40916667  0.00000000
C        C    0.34733333  0.17666667  0.40926667  0.00000000
C        C    0.83733333  0.68066667  0.92406667  0.00000000
C        C    0.01400000  0.51000000  0.74260000  0.00000000
C        C    0.65266667  0.82333333  0.59073333  0.00000000
C        C    0.17066667  0.34733333  0.59073333  0.00000000
C        C    0.49000000  0.50400000  0.74260000  0.00000000
C        C    0.50400000  0.01400000  0.25740000  0.00000000
C        C    0.68066667  0.84333333  0.07593333  0.00000000
C        C    0.98600000  0.49000000  0.25740000  0.00000000
C        C    0.15666667  0.83733333  0.07593333  0.00000000
C        C    0.16266667  0.31933333  0.07593333  0.00000000
C        C    0.84333333  0.16266667  0.92406667  0.00000000
C        C    0.51000000  0.49600000  0.25740000  0.00000000
C        C    0.82333333  0.17066667  0.40926667  0.00000000
C        C    0.49600000  0.98600000  0.74260000  0.00000000
C        C    0.17666667  0.82933333  0.59073333  0.00000000
C        C    0.31933333  0.15666667  0.92406667  0.00000000
C        C    0.82933333  0.65266667  0.40926667  0.00000000
H        H    0.34623333  0.16646667  0.40506667  0.00000000
H        H    0.84643333  0.67956667  0.92826667  0.00000000
H        H    0.01290000  0.49980000  0.73840000  0.00000000
H        H    0.65376667  0.83353333  0.59493333  0.00000000
H        H    0.17976667  0.34623333  0.59493333  0.00000000
H        H    0.50020000  0.51310000  0.73840000  0.00000000
H        H    0.51310000  0.01290000  0.26160000  0.00000000
H        H    0.67956667  0.83313333  0.07173333  0.00000000
H        H    0.98710000  0.50020000  0.26160000  0.00000000
H        H    0.16686667  0.84643333  0.07173333  0.00000000
H        H    0.15356667  0.32043333  0.07173333  0.00000000
H        H    0.83313333  0.15356667  0.92826667  0.00000000
H        H    0.49980000  0.48690000  0.26160000  0.00000000
H        H    0.83353333  0.17976667  0.40506667  0.00000000
H        H    0.48690000  0.98710000  0.73840000  0.00000000
H        H    0.16646667  0.82023333  0.59493333  0.00000000
H        H    0.32043333  0.16686667  0.92826667  0.00000000
H        H    0.82023333  0.65376667  0.40506667  0.00000000
C        C    0.34833333  0.16366667  0.41546667  0.00000000
C        C    0.85133333  0.68166667  0.91786667  0.00000000
C        C    0.01500000  0.49700000  0.74880000  0.00000000
C        C    0.65166667  0.83633333  0.58453333  0.00000000
C        C    0.18466667  0.34833333  0.58453333  0.00000000
C        C    0.50300000  0.51800000  0.74880000  0.00000000
C        C    0.51800000  0.01500000  0.25120000  0.00000000
C        C    0.68166667  0.83033333  0.08213333  0.00000000
C        C    0.98500000  0.50300000  0.25120000  0.00000000
C        C    0.16966667  0.85133333  0.08213333  0.00000000
C        C    0.14866667  0.31833333  0.08213333  0.00000000
C        C    0.83033333  0.14866667  0.91786667  0.00000000
C        C    0.49700000  0.48200000  0.25120000  0.00000000
C        C    0.83633333  0.18466667  0.41546667  0.00000000
C        C    0.48200000  0.98500000  0.74880000  0.00000000
C        C    0.16366667  0.81533333  0.58453333  0.00000000
C        C    0.31833333  0.16966667  0.91786667  0.00000000
C        C    0.81533333  0.65166667  0.41546667  0.00000000
C        C    0.35033333  0.17866667  0.42166667  0.00000000
C        C    0.83833333  0.68366667  0.91166667  0.00000000
C        C    0.01700000  0.51200000  0.75500000  0.00000000
C        C    0.64966667  0.82133333  0.57833333  0.00000000
C        C    0.17166667  0.35033333  0.57833333  0.00000000
C        C    0.48800000  0.50500000  0.75500000  0.00000000
C        C    0.50500000  0.01700000  0.24500000  0.00000000
C        C    0.68366667  0.84533333  0.08833333  0.00000000
C        C    0.98300000  0.48800000  0.24500000  0.00000000
C        C    0.15466667  0.83833333  0.08833333  0.00000000
C        C    0.16166667  0.31633333  0.08833333  0.00000000
C        C    0.84533333  0.16166667  0.91166667  0.00000000
C        C    0.51200000  0.49500000  0.24500000  0.00000000
C        C    0.82133333  0.17166667  0.42166667  0.00000000
C        C    0.49500000  0.98300000  0.75500000  0.00000000
C        C    0.17866667  0.82833333  0.57833333  0.00000000
C        C    0.31633333  0.15466667  0.91166667  0.00000000
C        C    0.82833333  0.64966667  0.42166667  0.00000000
H        H    0.35213333  0.17016667  0.42596667  0.00000000
H        H    0.84863333  0.68546667  0.90736667  0.00000000
H        H    0.01880000  0.50350000  0.75930000  0.00000000
H        H    0.64786667  0.82983333  0.57403333  0.00000000
H        H    0.18196667  0.35213333  0.57403333  0.00000000
H        H    0.49650000  0.51530000  0.75930000  0.00000000
H        H    0.51530000  0.01880000  0.24070000  0.00000000
H        H    0.68546667  0.83683333  0.09263333  0.00000000
H        H    0.98120000  0.49650000  0.24070000  0.00000000
H        H    0.16316667  0.84863333  0.09263333  0.00000000
H        H    0.15136667  0.31453333  0.09263333  0.00000000
H        H    0.83683333  0.15136667  0.90736667  0.00000000
H        H    0.50350000  0.48470000  0.24070000  0.00000000
H        H    0.82983333  0.18196667  0.42596667  0.00000000
H        H    0.48470000  0.98120000  0.75930000  0.00000000
H        H    0.17016667  0.81803333  0.57403333  0.00000000
H        H    0.31453333  0.16316667  0.90736667  0.00000000
H        H    0.81803333  0.64786667  0.42596667  0.00000000
C        C    0.34333333  0.08166667  0.41596667  0.00000000
C        C    0.92833333  0.67666667  0.91736667  0.00000000
C        C    0.01000000  0.41500000  0.74930000  0.00000000
C        C    0.65666667  0.91833333  0.58403333  0.00000000
C        C    0.26166667  0.34333333  0.58403333  0.00000000
C        C    0.58500000  0.59500000  0.74930000  0.00000000
C        C    0.59500000  0.01000000  0.25070000  0.00000000
C        C    0.67666667  0.74833333  0.08263333  0.00000000
C        C    0.99000000  0.58500000  0.25070000  0.00000000
C        C    0.25166667  0.92833333  0.08263333  0.00000000
C        C    0.07166667  0.32333333  0.08263333  0.00000000
C        C    0.74833333  0.07166667  0.91736667  0.00000000
C        C    0.41500000  0.40500000  0.25070000  0.00000000
C        C    0.91833333  0.26166667  0.41596667  0.00000000
C        C    0.40500000  0.99000000  0.74930000  0.00000000
C        C    0.08166667  0.73833333  0.58403333  0.00000000
C        C    0.32333333  0.25166667  0.91736667  0.00000000
C        C    0.73833333  0.65666667  0.41596667  0.00000000
C        C    0.34833333  0.07066667  0.42206667  0.00000000
C        C    0.94433333  0.68166667  0.91126667  0.00000000
C        C    0.01500000  0.40400000  0.75540000  0.00000000
C        C    0.65166667  0.92933333  0.57793333  0.00000000
C        C    0.27766667  0.34833333  0.57793333  0.00000000
C        C    0.59600000  0.61100000  0.75540000  0.00000000
C        C    0.61100000  0.01500000  0.24460000  0.00000000
C        C    0.68166667  0.73733333  0.08873333  0.00000000
C        C    0.98500000  0.59600000  0.24460000  0.00000000
C        C    0.26266667  0.94433333  0.08873333  0.00000000
C        C    0.05566667  0.31833333  0.08873333  0.00000000
C        C    0.73733333  0.05566667  0.91126667  0.00000000
C        C    0.40400000  0.38900000  0.24460000  0.00000000
C        C    0.92933333  0.27766667  0.42206667  0.00000000
C        C    0.38900000  0.98500000  0.75540000  0.00000000
C        C    0.07066667  0.72233333  0.57793333  0.00000000
C        C    0.31833333  0.26266667  0.91126667  0.00000000
C        C    0.72233333  0.65166667  0.42206667  0.00000000
H        H    0.35533333  0.08356667  0.42606667  0.00000000
H        H    0.93843333  0.68866667  0.90726667  0.00000000
H        H    0.02200000  0.41690000  0.75940000  0.00000000
H        H    0.64466667  0.91643333  0.57393333  0.00000000
H        H    0.27176667  0.35533333  0.57393333  0.00000000
H        H    0.58310000  0.60510000  0.75940000  0.00000000
H        H    0.60510000  0.02200000  0.24060000  0.00000000
H        H    0.68866667  0.75023333  0.09273333  0.00000000
H        H    0.97800000  0.58310000  0.24060000  0.00000000
H        H    0.24976667  0.93843333  0.09273333  0.00000000
H        H    0.06156667  0.31133333  0.09273333  0.00000000
H        H    0.75023333  0.06156667  0.90726667  0.00000000
H        H    0.41690000  0.39490000  0.24060000  0.00000000
H        H    0.91643333  0.27176667  0.42606667  0.00000000
H        H    0.39490000  0.97800000  0.75940000  0.00000000
H        H    0.08356667  0.72823333  0.57393333  0.00000000
H        H    0.31133333  0.24976667  0.90726667  0.00000000
H        H    0.72823333  0.64466667  0.42606667  0.00000000
C        C    0.34533333  0.04166667  0.42226667  0.00000000
C        C    0.97033333  0.67866667  0.91106667  0.00000000
C        C    0.01200000  0.37500000  0.75560000  0.00000000
C        C    0.65466667  0.95833333  0.57773333  0.00000000
C        C    0.30366667  0.34533333  0.57773333  0.00000000
C        C    0.62500000  0.63700000  0.75560000  0.00000000
C        C    0.63700000  0.01200000  0.24440000  0.00000000
C        C    0.67866667  0.70833333  0.08893333  0.00000000
C        C    0.98800000  0.62500000  0.24440000  0.00000000
C        C    0.29166667  0.97033333  0.08893333  0.00000000
C        C    0.02966667  0.32133333  0.08893333  0.00000000
C        C    0.70833333  0.02966667  0.91106667  0.00000000
C        C    0.37500000  0.36300000  0.24440000  0.00000000
C        C    0.95833333  0.30366667  0.42226667  0.00000000
C        C    0.36300000  0.98800000  0.75560000  0.00000000
C        C    0.04166667  0.69633333  0.57773333  0.00000000
C        C    0.32133333  0.29166667  0.91106667  0.00000000
C        C    0.69633333  0.65466667  0.42226667  0.00000000
H        H    0.35023333  0.03506667  0.42646667  0.00000000
H        H    0.98183333  0.68356667  0.90686667  0.00000000
H        H    0.01690000  0.36840000  0.75980000  0.00000000
H        H    0.64976667  0.96493333  0.57353333  0.00000000
H        H    0.31516667  0.35023333  0.57353333  0.00000000
H        H    0.63160000  0.64850000  0.75980000  0.00000000
H        H    0.64850000  0.01690000  0.24020000  0.00000000
H        H    0.68356667  0.70173333  0.09313333  0.00000000
H        H    0.98310000  0.63160000  0.24020000  0.00000000
H        H    0.29826667  0.98183333  0.09313333  0.00000000
H        H    0.01816667  0.31643333  0.09313333  0.00000000
H        H    0.70173333  0.01816667  0.90686667  0.00000000
H        H    0.36840000  0.35150000  0.24020000  0.00000000
H        H    0.96493333  0.31516667  0.42646667  0.00000000
H        H    0.35150000  0.98310000  0.75980000  0.00000000
H        H    0.03506667  0.68483333  0.57353333  0.00000000
H        H    0.31643333  0.29826667  0.90686667  0.00000000
H        H    0.68483333  0.64976667  0.42646667  0.00000000
C        C    0.33633333  0.02366667  0.41646667  0.00000000
C        C    0.97933333  0.66966667  0.91686667  0.00000000
C        C    0.00300000  0.35700000  0.74980000  0.00000000
C        C    0.66366667  0.97633333  0.58353333  0.00000000
C        C    0.31266667  0.33633333  0.58353333  0.00000000
C        C    0.64300000  0.64600000  0.74980000  0.00000000
C        C    0.64600000  0.00300000  0.25020000  0.00000000
C        C    0.66966667  0.69033333  0.08313333  0.00000000
C        C    0.99700000  0.64300000  0.25020000  0.00000000
C        C    0.30966667  0.97933333  0.08313333  0.00000000
C        C    0.02066667  0.33033333  0.08313333  0.00000000
C        C    0.69033333  0.02066667  0.91686667  0.00000000
C        C    0.35700000  0.35400000  0.25020000  0.00000000
C        C    0.97633333  0.31266667  0.41646667  0.00000000
C        C    0.35400000  0.99700000  0.74980000  0.00000000
C        C    0.02366667  0.68733333  0.58353333  0.00000000
C        C    0.33033333  0.30966667  0.91686667  0.00000000
C        C    0.68733333  0.66366667  0.41646667  0.00000000
C        C    0.32933333  0.03366667  0.41036667  0.00000000
C        C    0.96233333  0.66266667  0.92296667  0.00000000
C        C    0.99600000  0.36700000  0.74370000  0.00000000
C        C    0.67066667  0.96633333  0.58963333  0.00000000
C        C    0.29566667  0.32933333  0.58963333  0.00000000
C        C    0.63300000  0.62900000  0.74370000  0.00000000
C        C    0.62900000  0.99600000  0.25630000  0.00000000
C        C    0.66266667  0.70033333  0.07703333  0.00000000
C        C    0.00400000  0.63300000  0.25630000  0.00000000
C        C    0.29966667  0.96233333  0.07703333  0.00000000
C        C    0.03766667  0.33733333  0.07703333  0.00000000
C        C    0.70033333  0.03766667  0.92296667  0.00000000
C        C    0.36700000  0.37100000  0.25630000  0.00000000
C        C    0.96633333  0.29566667  0.41036667  0.00000000
C        C    0.37100000  0.00400000  0.74370000  0.00000000
C        C    0.03366667  0.70433333  0.58963333  0.00000000
C        C    0.33733333  0.29966667  0.92296667  0.00000000
C        C    0.70433333  0.67066667  0.41036667  0.00000000
H        H    0.32323333  0.02156667  0.40636667  0.00000000
H        H    0.96833333  0.65656667  0.92696667  0.00000000
H        H    0.98990000  0.35490000  0.73970000  0.00000000
H        H    0.67676667  0.97843333  0.59363333  0.00000000
H        H    0.30166667  0.32323333  0.59363333  0.00000000
H        H    0.64510000  0.63500000  0.73970000  0.00000000
H        H    0.63500000  0.98990000  0.26030000  0.00000000
H        H    0.65656667  0.68823333  0.07303333  0.00000000
H        H    0.01010000  0.64510000  0.26030000  0.00000000
H        H    0.31176667  0.96833333  0.07303333  0.00000000
H        H    0.03166667  0.34343333  0.07303333  0.00000000
H        H    0.68823333  0.03166667  0.92696667  0.00000000
H        H    0.35490000  0.36500000  0.26030000  0.00000000
H        H    0.97843333  0.30166667  0.40636667  0.00000000
H        H    0.36500000  0.01010000  0.73970000  0.00000000
H        H    0.02156667  0.69833333  0.59363333  0.00000000
H        H    0.34343333  0.31176667  0.92696667  0.00000000
H        H    0.69833333  0.67676667  0.40636667  0.00000000
C        C    0.33233333  0.06266667  0.41016667  0.00000000
C        C    0.93633333  0.66566667  0.92316667  0.00000000
C        C    0.99900000  0.39600000  0.74350000  0.00000000
C        C    0.66766667  0.93733333  0.58983333  0.00000000
C        C    0.26966667  0.33233333  0.58983333  0.00000000
C        C    0.60400000  0.60300000  0.74350000  0.00000000
C        C    0.60300000  0.99900000  0.25650000  0.00000000
C        C    0.66566667  0.72933333  0.07683333  0.00000000
C        C    0.00100000  0.60400000  0.25650000  0.00000000
C        C    0.27066667  0.93633333  0.07683333  0.00000000
C        C    0.06366667  0.33433333  0.07683333  0.00000000
C        C    0.72933333  0.06366667  0.92316667  0.00000000
C        C    0.39600000  0.39700000  0.25650000  0.00000000
C        C    0.93733333  0.26966667  0.41016667  0.00000000
C        C    0.39700000  0.00100000  0.74350000  0.00000000
C        C    0.06266667  0.73033333  0.58983333  0.00000000
C        C    0.33433333  0.27066667  0.92316667  0.00000000
C        C    0.73033333  0.66766667  0.41016667  0.00000000
H        H    0.32843333  0.07006667  0.40606667  0.00000000
H        H    0.92503333  0.66176667  0.92726667  0.00000000
H        H    0.99510000  0.40340000  0.73940000  0.00000000
H        H    0.67156667  0.92993333  0.59393333  0.00000000
H        H    0.25836667  0.32843333  0.59393333  0.00000000
H        H    0.59660000  0.59170000  0.73940000  0.00000000
H        H    0.59170000  0.99510000  0.26060000  0.00000000
H        H    0.66176667  0.73673333  0.07273333  0.00000000
H        H    0.00490000  0.59660000  0.26060000  0.00000000
H        H    0.26326667  0.92503333  0.07273333  0.00000000
H        H    0.07496667  0.33823333  0.07273333  0.00000000
H        H    0.73673333  0.07496667  0.92726667  0.00000000
H        H    0.40340000  0.40830000  0.26060000  0.00000000
H        H    0.92993333  0.25836667  0.40606667  0.00000000
H        H    0.40830000  0.00490000  0.73940000  0.00000000
H        H    0.07006667  0.74163333  0.59393333  0.00000000
H        H    0.33823333  0.26326667  0.92726667  0.00000000
H        H    0.74163333  0.67156667  0.40606667  0.00000000
C        C    0.32633333  0.23266667  0.39176667  0.00000000
C        C    0.76033333  0.65966667  0.94156667  0.00000000
C        C    0.99300000  0.56600000  0.72510000  0.00000000
C        C    0.67366667  0.76733333  0.60823333  0.00000000
C        C    0.09366667  0.32633333  0.60823333  0.00000000
C        C    0.43400000  0.42700000  0.72510000  0.00000000
C        C    0.42700000  0.99300000  0.27490000  0.00000000
C        C    0.65966667  0.89933333  0.05843333  0.00000000
C        C    0.00700000  0.43400000  0.27490000  0.00000000
C        C    0.10066667  0.76033333  0.05843333  0.00000000
C        C    0.23966667  0.34033333  0.05843333  0.00000000
C        C    0.89933333  0.23966667  0.94156667  0.00000000
C        C    0.56600000  0.57300000  0.27490000  0.00000000
C        C    0.76733333  0.09366667  0.39176667  0.00000000
C        C    0.57300000  0.00700000  0.72510000  0.00000000
C        C    0.23266667  0.90633333  0.60823333  0.00000000
C        C    0.34033333  0.10066667  0.94156667  0.00000000
C        C    0.90633333  0.67366667  0.39176667  0.00000000
C        C    0.31333333  0.26766667  0.38636667  0.00000000
C        C    0.71233333  0.64666667  0.94696667  0.00000000
C        C    0.98000000  0.60100000  0.71970000  0.00000000
C        C    0.68666667  0.73233333  0.61363333  0.00000000
C        C    0.04566667  0.31333333  0.61363333  0.00000000
C        C    0.39900000  0.37900000  0.71970000  0.00000000
C        C    0.37900000  0.98000000  0.28030000  0.00000000
C        C    0.64666667  0.93433333  0.05303333  0.00000000
C        C    0.02000000  0.39900000  0.28030000  0.00000000
C        C    0.06566667  0.71233333  0.05303333  0.00000000
C        C    0.28766667  0.35333333  0.05303333  0.00000000
C        C    0.93433333  0.28766667  0.94696667  0.00000000
C        C    0.60100000  0.62100000  0.28030000  0.00000000
C        C    0.73233333  0.04566667  0.38636667  0.00000000
C        C    0.62100000  0.02000000  0.71970000  0.00000000
C        C    0.26766667  0.95433333  0.61363333  0.00000000
C        C    0.35333333  0.06566667  0.94696667  0.00000000
C        C    0.95433333  0.68666667  0.38636667  0.00000000
H        H    0.31383333  0.28656667  0.38626667  0.00000000
H        H    0.69393333  0.64716667  0.94706667  0.00000000
H        H    0.98050000  0.61990000  0.71960000  0.00000000
H        H    0.68616667  0.71343333  0.61373333  0.00000000
H        H    0.02726667  0.31383333  0.61373333  0.00000000
H        H    0.38010000  0.36060000  0.71960000  0.00000000
H        H    0.36060000  0.98050000  0.28040000  0.00000000
H        H    0.64716667  0.95323333  0.05293333  0.00000000
H        H    0.01950000  0.38010000  0.28040000  0.00000000
H        H    0.04676667  0.69393333  0.05293333  0.00000000
H        H    0.30606667  0.35283333  0.05293333  0.00000000
H        H    0.95323333  0.30606667  0.94706667  0.00000000
H        H    0.61990000  0.63940000  0.28040000  0.00000000
H        H    0.71343333  0.02726667  0.38626667  0.00000000
H        H    0.63940000  0.01950000  0.71960000  0.00000000
H        H    0.28656667  0.97273333  0.61373333  0.00000000
H        H    0.35283333  0.04676667  0.94706667  0.00000000
H        H    0.97273333  0.68616667  0.38626667  0.00000000
C        C    0.32733333  0.26066667  0.39166667  0.00000000
C        C    0.73333333  0.66066667  0.94166667  0.00000000
C        C    0.99400000  0.59400000  0.72500000  0.00000000
C        C    0.67266667  0.73933333  0.60833333  0.00000000
C        C    0.06666667  0.32733333  0.60833333  0.00000000
C        C    0.40600000  0.40000000  0.72500000  0.00000000
C        C    0.40000000  0.99400000  0.27500000  0.00000000
C        C    0.66066667  0.92733333  0.05833333  0.00000000
C        C    0.00600000  0.40600000  0.27500000  0.00000000
C        C    0.07266667  0.73333333  0.05833333  0.00000000
C        C    0.26666667  0.33933333  0.05833333  0.00000000
C        C    0.92733333  0.26666667  0.94166667  0.00000000
C        C    0.59400000  0.60000000  0.27500000  0.00000000
C        C    0.73933333  0.06666667  0.39166667  0.00000000
C        C    0.60000000  0.00600000  0.72500000  0.00000000
C        C    0.26066667  0.93333333  0.60833333  0.00000000
C        C    0.33933333  0.07266667  0.94166667  0.00000000
C        C    0.93333333  0.67266667  0.39166667  0.00000000
H        H    0.33633333  0.27446667  0.39536667  0.00000000
H        H    0.72853333  0.66966667  0.93796667  0.00000000
H        H    0.00300000  0.60780000  0.72870000  0.00000000
H        H    0.66366667  0.72553333  0.60463333  0.00000000
H        H    0.06186667  0.33633333  0.60463333  0.00000000
H        H    0.39220000  0.39520000  0.72870000  0.00000000
H        H    0.39520000  0.00300000  0.27130000  0.00000000
H        H    0.66966667  0.94113333  0.06203333  0.00000000
H        H    0.99700000  0.39220000  0.27130000  0.00000000
H        H    0.05886667  0.72853333  0.06203333  0.00000000
H        H    0.27146667  0.33033333  0.06203333  0.00000000
H        H    0.94113333  0.27146667  0.93796667  0.00000000
H        H    0.60780000  0.60480000  0.27130000  0.00000000
H        H    0.72553333  0.06186667  0.39536667  0.00000000
H        H    0.60480000  0.99700000  0.72870000  0.00000000
H        H    0.27446667  0.93813333  0.60463333  0.00000000
H        H    0.33033333  0.05886667  0.93796667  0.00000000
H        H    0.93813333  0.66366667  0.39536667  0.00000000
C        C    0.36333333  0.29266667  0.44576667  0.00000000
C        C    0.73733333  0.69666667  0.88756667  0.00000000
C        C    0.03000000  0.62600000  0.77910000  0.00000000
C        C    0.63666667  0.70733333  0.55423333  0.00000000
C        C    0.07066667  0.36333333  0.55423333  0.00000000
C        C    0.37400000  0.40400000  0.77910000  0.00000000
C        C    0.40400000  0.03000000  0.22090000  0.00000000
C        C    0.69666667  0.95933333  0.11243333  0.00000000
C        C    0.97000000  0.37400000  0.22090000  0.00000000
C        C    0.04066667  0.73733333  0.11243333  0.00000000
C        C    0.26266667  0.30333333  0.11243333  0.00000000
C        C    0.95933333  0.26266667  0.88756667  0.00000000
C        C    0.62600000  0.59600000  0.22090000  0.00000000
C        C    0.70733333  0.07066667  0.44576667  0.00000000
C        C    0.59600000  0.97000000  0.77910000  0.00000000
C        C    0.29266667  0.92933333  0.55423333  0.00000000
C        C    0.30333333  0.04066667  0.88756667  0.00000000
C        C    0.92933333  0.63666667  0.44576667  0.00000000
H        H    0.36033333  0.30976667  0.44596667  0.00000000
H        H    0.71723333  0.69366667  0.88736667  0.00000000
H        H    0.02700000  0.64310000  0.77930000  0.00000000
H        H    0.63966667  0.69023333  0.55403333  0.00000000
H        H    0.05056667  0.36033333  0.55403333  0.00000000
H        H    0.35690000  0.38390000  0.77930000  0.00000000
H        H    0.38390000  0.02700000  0.22070000  0.00000000
H        H    0.69366667  0.97643333  0.11263333  0.00000000
H        H    0.97300000  0.35690000  0.22070000  0.00000000
H        H    0.02356667  0.71723333  0.11263333  0.00000000
H        H    0.28276667  0.30633333  0.11263333  0.00000000
H        H    0.97643333  0.28276667  0.88736667  0.00000000
H        H    0.64310000  0.61610000  0.22070000  0.00000000
H        H    0.69023333  0.05056667  0.44596667  0.00000000
H        H    0.61610000  0.97300000  0.77930000  0.00000000
H        H    0.30976667  0.94943333  0.55403333  0.00000000
H        H    0.30633333  0.02356667  0.88736667  0.00000000
H        H    0.94943333  0.63966667  0.44596667  0.00000000
C        C    0.35433333  0.27466667  0.43986667  0.00000000
C        C    0.74633333  0.68766667  0.89346667  0.00000000
C        C    0.02100000  0.60800000  0.77320000  0.00000000
C        C    0.64566667  0.72533333  0.56013333  0.00000000
C        C    0.07966667  0.35433333  0.56013333  0.00000000
C        C    0.39200000  0.41300000  0.77320000  0.00000000
C        C    0.41300000  0.02100000  0.22680000  0.00000000
C        C    0.68766667  0.94133333  0.10653333  0.00000000
C        C    0.97900000  0.39200000  0.22680000  0.00000000
C        C    0.05866667  0.74633333  0.10653333  0.00000000
C        C    0.25366667  0.31233333  0.10653333  0.00000000
C        C    0.94133333  0.25366667  0.89346667  0.00000000
C        C    0.60800000  0.58700000  0.22680000  0.00000000
C        C    0.72533333  0.07966667  0.43986667  0.00000000
C        C    0.58700000  0.97900000  0.77320000  0.00000000
C        C    0.27466667  0.92033333  0.56013333  0.00000000
C        C    0.31233333  0.05866667  0.89346667  0.00000000
C        C    0.92033333  0.64566667  0.43986667  0.00000000
H        H    0.34653333  0.27986667  0.43596667  0.00000000
H        H    0.73333333  0.67986667  0.89736667  0.00000000
H        H    0.01320000  0.61320000  0.76930000  0.00000000
H        H    0.65346667  0.72013333  0.56403333  0.00000000
H        H    0.06666667  0.34653333  0.56403333  0.00000000
H        H    0.38680000  0.40000000  0.76930000  0.00000000
H        H    0.40000000  0.01320000  0.23070000  0.00000000
H        H    0.67986667  0.94653333  0.10263333  0.00000000
H        H    0.98680000  0.38680000  0.23070000  0.00000000
H        H    0.05346667  0.73333333  0.10263333  0.00000000
H        H    0.26666667  0.32013333  0.10263333  0.00000000
H        H    0.94653333  0.26666667  0.89736667  0.00000000
H        H    0.61320000  0.60000000  0.23070000  0.00000000
H        H    0.72013333  0.06666667  0.43596667  0.00000000
H        H    0.60000000  0.98680000  0.76930000  0.00000000
H        H    0.27986667  0.93333333  0.56403333  0.00000000
H        H    0.32013333  0.05346667  0.89736667  0.00000000
H        H    0.93333333  0.65346667  0.43596667  0.00000000
C        C    0.35733333  0.24866667  0.43966667  0.00000000
C        C    0.77533333  0.69066667  0.89366667  0.00000000
C        C    0.02400000  0.58200000  0.77300000  0.00000000
C        C    0.64266667  0.75133333  0.56033333  0.00000000
C        C    0.10866667  0.35733333  0.56033333  0.00000000
C        C    0.41800000  0.44200000  0.77300000  0.00000000
C        C    0.44200000  0.02400000  0.22700000  0.00000000
C        C    0.69066667  0.91533333  0.10633333  0.00000000
C        C    0.97600000  0.41800000  0.22700000  0.00000000
C        C    0.08466667  0.77533333  0.10633333  0.00000000
C        C    0.22466667  0.30933333  0.10633333  0.00000000
C        C    0.91533333  0.22466667  0.89366667  0.00000000
C        C    0.58200000  0.55800000  0.22700000  0.00000000
C        C    0.75133333  0.10866667  0.43966667  0.00000000
C        C    0.55800000  0.97600000  0.77300000  0.00000000
C        C    0.24866667  0.89133333  0.56033333  0.00000000
C        C    0.30933333  0.08466667  0.89366667  0.00000000
C        C    0.89133333  0.64266667  0.43966667  0.00000000
C        C    0.34133333  0.21466667  0.40286667  0.00000000
C        C    0.79333333  0.67466667  0.93046667  0.00000000
C        C    0.00800000  0.54800000  0.73620000  0.00000000
C        C    0.65866667  0.78533333  0.59713333  0.00000000
C        C    0.12666667  0.34133333  0.59713333  0.00000000
C        C    0.45200000  0.46000000  0.73620000  0.00000000
C        C    0.46000000  0.00800000  0.26380000  0.00000000
C        C    0.67466667  0.88133333  0.06953333  0.00000000
C        C    0.99200000  0.45200000  0.26380000  0.00000000
C        C    0.11866667  0.79333333  0.06953333  0.00000000
C        C    0.20666667  0.32533333  0.06953333  0.00000000
C        C    0.88133333  0.20666667  0.93046667  0.00000000
C        C    0.54800000  0.54000000  0.26380000  0.00000000
C        C    0.78533333  0.12666667  0.40286667  0.00000000
C        C    0.54000000  0.99200000  0.73620000  0.00000000
C        C    0.21466667  0.87333333  0.59713333  0.00000000
C        C    0.32533333  0.11866667  0.93046667  0.00000000
C        C    0.87333333  0.65866667  0.40286667  0.00000000
C        C    0.33533333  0.22366667  0.39766667  0.00000000
C        C    0.77833333  0.66866667  0.93566667  0.00000000
C        C    0.00200000  0.55700000  0.73100000  0.00000000
C        C    0.66466667  0.77633333  0.60233333  0.00000000
C        C    0.11166667  0.33533333  0.60233333  0.00000000
C        C    0.44300000  0.44500000  0.73100000  0.00000000
C        C    0.44500000  0.00200000  0.26900000  0.00000000
C        C    0.66866667  0.89033333  0.06433333  0.00000000
C        C    0.99800000  0.44300000  0.26900000  0.00000000
C        C    0.10966667  0.77833333  0.06433333  0.00000000
C        C    0.22166667  0.33133333  0.06433333  0.00000000
C        C    0.89033333  0.22166667  0.93566667  0.00000000
C        C    0.55700000  0.55500000  0.26900000  0.00000000
C        C    0.77633333  0.11166667  0.39766667  0.00000000
C        C    0.55500000  0.99800000  0.73100000  0.00000000
C        C    0.22366667  0.88833333  0.60233333  0.00000000
C        C    0.33133333  0.10966667  0.93566667  0.00000000
C        C    0.88833333  0.66466667  0.39766667  0.00000000
C        C    0.34533333  0.11066667  0.41576667  0.00000000
C        C    0.90133333  0.67866667  0.91756667  0.00000000
C        C    0.01200000  0.44400000  0.74910000  0.00000000
C        C    0.65466667  0.88933333  0.58423333  0.00000000
C        C    0.23466667  0.34533333  0.58423333  0.00000000
C        C    0.55600000  0.56800000  0.74910000  0.00000000
C        C    0.56800000  0.01200000  0.25090000  0.00000000
C        C    0.67866667  0.77733333  0.08243333  0.00000000
C        C    0.98800000  0.55600000  0.25090000  0.00000000
C        C    0.22266667  0.90133333  0.08243333  0.00000000
C        C    0.09866667  0.32133333  0.08243333  0.00000000
C        C    0.77733333  0.09866667  0.91756667  0.00000000
C        C    0.44400000  0.43200000  0.25090000  0.00000000
C        C    0.88933333  0.23466667  0.41576667  0.00000000
C        C    0.43200000  0.98800000  0.74910000  0.00000000
C        C    0.11066667  0.76533333  0.58423333  0.00000000
C        C    0.32133333  0.22266667  0.91756667  0.00000000
C        C    0.76533333  0.65466667  0.41576667  0.00000000
C        C    0.34833333  0.13566667  0.41566667  0.00000000
C        C    0.87933333  0.68166667  0.91766667  0.00000000
C        C    0.01500000  0.46900000  0.74900000  0.00000000
C        C    0.65166667  0.86433333  0.58433333  0.00000000
C        C    0.21266667  0.34833333  0.58433333  0.00000000
C        C    0.53100000  0.54600000  0.74900000  0.00000000
C        C    0.54600000  0.01500000  0.25100000  0.00000000
C        C    0.68166667  0.80233333  0.08233333  0.00000000
C        C    0.98500000  0.53100000  0.25100000  0.00000000
C        C    0.19766667  0.87933333  0.08233333  0.00000000
C        C    0.12066667  0.31833333  0.08233333  0.00000000
C        C    0.80233333  0.12066667  0.91766667  0.00000000
C        C    0.46900000  0.45400000  0.25100000  0.00000000
C        C    0.86433333  0.21266667  0.41566667  0.00000000
C        C    0.45400000  0.98500000  0.74900000  0.00000000
C        C    0.13566667  0.78733333  0.58433333  0.00000000
C        C    0.31833333  0.19766667  0.91766667  0.00000000
C        C    0.78733333  0.65166667  0.41566667  0.00000000
C        C    0.35333333  0.23266667  0.43326667  0.00000000
C        C    0.78733333  0.68666667  0.90006667  0.00000000
C        C    0.02000000  0.56600000  0.76660000  0.00000000
C        C    0.64666667  0.76733333  0.56673333  0.00000000
C        C    0.12066667  0.35333333  0.56673333  0.00000000
C        C    0.43400000  0.45400000  0.76660000  0.00000000
C        C    0.45400000  0.02000000  0.23340000  0.00000000
C        C    0.68666667  0.89933333  0.09993333  0.00000000
C        C    0.98000000  0.43400000  0.23340000  0.00000000
C        C    0.10066667  0.78733333  0.09993333  0.00000000
C        C    0.21266667  0.31333333  0.09993333  0.00000000
C        C    0.89933333  0.21266667  0.90006667  0.00000000
C        C    0.56600000  0.54600000  0.23340000  0.00000000
C        C    0.76733333  0.12066667  0.43326667  0.00000000
C        C    0.54600000  0.98000000  0.76660000  0.00000000
C        C    0.23266667  0.87933333  0.56673333  0.00000000
C        C    0.31333333  0.10066667  0.90006667  0.00000000
C        C    0.87933333  0.64666667  0.43326667  0.00000000
C        C    0.35133333  0.22066667  0.42796667  0.00000000
C        C    0.79733333  0.68466667  0.90536667  0.00000000
C        C    0.01800000  0.55400000  0.76130000  0.00000000
C        C    0.64866667  0.77933333  0.57203333  0.00000000
C        C    0.13066667  0.35133333  0.57203333  0.00000000
C        C    0.44600000  0.46400000  0.76130000  0.00000000
C        C    0.46400000  0.01800000  0.23870000  0.00000000
C        C    0.68466667  0.88733333  0.09463333  0.00000000
C        C    0.98200000  0.44600000  0.23870000  0.00000000
C        C    0.11266667  0.79733333  0.09463333  0.00000000
C        C    0.20266667  0.31533333  0.09463333  0.00000000
C        C    0.88733333  0.20266667  0.90536667  0.00000000
C        C    0.55400000  0.53600000  0.23870000  0.00000000
C        C    0.77933333  0.13066667  0.42796667  0.00000000
C        C    0.53600000  0.98200000  0.76130000  0.00000000
C        C    0.22066667  0.86933333  0.57203333  0.00000000
C        C    0.31533333  0.11266667  0.90536667  0.00000000
C        C    0.86933333  0.64866667  0.42796667  0.00000000
C        C    0.31233333  0.21166667  0.38636667  0.00000000
C        C    0.76733333  0.64566667  0.94696667  0.00000000
C        C    0.97900000  0.54500000  0.71970000  0.00000000
C        C    0.68766667  0.78833333  0.61363333  0.00000000
C        C    0.10066667  0.31233333  0.61363333  0.00000000
C        C    0.45500000  0.43400000  0.71970000  0.00000000
C        C    0.43400000  0.97900000  0.28030000  0.00000000
C        C    0.64566667  0.87833333  0.05303333  0.00000000
C        C    0.02100000  0.45500000  0.28030000  0.00000000
C        C    0.12166667  0.76733333  0.05303333  0.00000000
C        C    0.23266667  0.35433333  0.05303333  0.00000000
C        C    0.87833333  0.23266667  0.94696667  0.00000000
C        C    0.54500000  0.56600000  0.28030000  0.00000000
C        C    0.78833333  0.10066667  0.38636667  0.00000000
C        C    0.56600000  0.02100000  0.71970000  0.00000000
C        C    0.21166667  0.89933333  0.61363333  0.00000000
C        C    0.35433333  0.12166667  0.94696667  0.00000000
C        C    0.89933333  0.68766667  0.38636667  0.00000000
H        H    0.31213333  0.19316667  0.38626667  0.00000000
H        H    0.78563333  0.64546667  0.94706667  0.00000000
H        H    0.97880000  0.52650000  0.71960000  0.00000000
H        H    0.68786667  0.80683333  0.61373333  0.00000000
H        H    0.11896667  0.31213333  0.61373333  0.00000000
H        H    0.47350000  0.45230000  0.71960000  0.00000000
H        H    0.45230000  0.97880000  0.28040000  0.00000000
H        H    0.64546667  0.85983333  0.05293333  0.00000000
H        H    0.02120000  0.47350000  0.28040000  0.00000000
H        H    0.14016667  0.78563333  0.05293333  0.00000000
H        H    0.21436667  0.35453333  0.05293333  0.00000000
H        H    0.85983333  0.21436667  0.94706667  0.00000000
H        H    0.52650000  0.54770000  0.28040000  0.00000000
H        H    0.80683333  0.11896667  0.38626667  0.00000000
H        H    0.54770000  0.02120000  0.71960000  0.00000000
H        H    0.19316667  0.88103333  0.61373333  0.00000000
H        H    0.35453333  0.14016667  0.94706667  0.00000000
H        H    0.88103333  0.68786667  0.38626667  0.00000000
C        C    0.29833333  0.21866667  0.38086667  0.00000000
C        C    0.74633333  0.63166667  0.95246667  0.00000000
C        C    0.96500000  0.55200000  0.71420000  0.00000000
C        C    0.70166667  0.78133333  0.61913333  0.00000000
C        C    0.07966667  0.29833333  0.61913333  0.00000000
C        C    0.44800000  0.41300000  0.71420000  0.00000000
C        C    0.41300000  0.96500000  0.28580000  0.00000000
C        C    0.63166667  0.88533333  0.04753333  0.00000000
C        C    0.03500000  0.44800000  0.28580000  0.00000000
C        C    0.11466667  0.74633333  0.04753333  0.00000000
C        C    0.25366667  0.36833333  0.04753333  0.00000000
C        C    0.88533333  0.25366667  0.95246667  0.00000000
C        C    0.55200000  0.58700000  0.28580000  0.00000000
C        C    0.78133333  0.07966667  0.38086667  0.00000000
C        C    0.58700000  0.03500000  0.71420000  0.00000000
C        C    0.21866667  0.92033333  0.61913333  0.00000000
C        C    0.36833333  0.11466667  0.95246667  0.00000000
C        C    0.92033333  0.70166667  0.38086667  0.00000000
H        H    0.28953333  0.20506667  0.37716667  0.00000000
H        H    0.75113333  0.62286667  0.95616667  0.00000000
H        H    0.95620000  0.53840000  0.71050000  0.00000000
H        H    0.71046667  0.79493333  0.62283333  0.00000000
H        H    0.08446667  0.28953333  0.62283333  0.00000000
H        H    0.46160000  0.41780000  0.71050000  0.00000000
H        H    0.41780000  0.95620000  0.28950000  0.00000000
H        H    0.62286667  0.87173333  0.04383333  0.00000000
H        H    0.04380000  0.46160000  0.28950000  0.00000000
H        H    0.12826667  0.75113333  0.04383333  0.00000000
H        H    0.24886667  0.37713333  0.04383333  0.00000000
H        H    0.87173333  0.24886667  0.95616667  0.00000000
H        H    0.53840000  0.58220000  0.28950000  0.00000000
H        H    0.79493333  0.08446667  0.37716667  0.00000000
H        H    0.58220000  0.04380000  0.71050000  0.00000000
H        H    0.20506667  0.91553333  0.62283333  0.00000000
H        H    0.37713333  0.12826667  0.95616667  0.00000000
H        H    0.91553333  0.71046667  0.37716667  0.00000000
C        C    0.29833333  0.24666667  0.38096667  0.00000000
C        C    0.71833333  0.63166667  0.95236667  0.00000000
C        C    0.96500000  0.58000000  0.71430000  0.00000000
C        C    0.70166667  0.75333333  0.61903333  0.00000000
C        C    0.05166667  0.29833333  0.61903333  0.00000000
C        C    0.42000000  0.38500000  0.71430000  0.00000000
C        C    0.38500000  0.96500000  0.28570000  0.00000000
C        C    0.63166667  0.91333333  0.04763333  0.00000000
C        C    0.03500000  0.42000000  0.28570000  0.00000000
C        C    0.08666667  0.71833333  0.04763333  0.00000000
C        C    0.28166667  0.36833333  0.04763333  0.00000000
C        C    0.91333333  0.28166667  0.95236667  0.00000000
C        C    0.58000000  0.61500000  0.28570000  0.00000000
C        C    0.75333333  0.05166667  0.38096667  0.00000000
C        C    0.61500000  0.03500000  0.71430000  0.00000000
C        C    0.24666667  0.94833333  0.61903333  0.00000000
C        C    0.36833333  0.08666667  0.95236667  0.00000000
C        C    0.94833333  0.70166667  0.38096667  0.00000000
C        C    0.28233333  0.25266667  0.37546667  0.00000000
C        C    0.69633333  0.61566667  0.95786667  0.00000000
C        C    0.94900000  0.58600000  0.70880000  0.00000000
C        C    0.71766667  0.74733333  0.62453333  0.00000000
C        C    0.02966667  0.28233333  0.62453333  0.00000000
C        C    0.41400000  0.36300000  0.70880000  0.00000000
C        C    0.36300000  0.94900000  0.29120000  0.00000000
C        C    0.61566667  0.91933333  0.04213333  0.00000000
C        C    0.05100000  0.41400000  0.29120000  0.00000000
C        C    0.08066667  0.69633333  0.04213333  0.00000000
C        C    0.30366667  0.38433333  0.04213333  0.00000000
C        C    0.91933333  0.30366667  0.95786667  0.00000000
C        C    0.58600000  0.63700000  0.29120000  0.00000000
C        C    0.74733333  0.02966667  0.37546667  0.00000000
C        C    0.63700000  0.05100000  0.70880000  0.00000000
C        C    0.25266667  0.97033333  0.62453333  0.00000000
C        C    0.38433333  0.08066667  0.95786667  0.00000000
C        C    0.97033333  0.71766667  0.37546667  0.00000000
C        C    0.57433333  0.62666667  0.40146667  0.00000000
C        C    0.61433333  0.90766667  0.93186667  0.00000000
C        C    0.24100000  0.96000000  0.73480000  0.00000000
C        C    0.42566667  0.37333333  0.59853333  0.00000000
C        C    0.94766667  0.57433333  0.59853333  0.00000000
C        C    0.04000000  0.28100000  0.73480000  0.00000000
C        C    0.28100000  0.24100000  0.26520000  0.00000000
C        C    0.90766667  0.29333333  0.06813333  0.00000000
C        C    0.75900000  0.04000000  0.26520000  0.00000000
C        C    0.70666667  0.61433333  0.06813333  0.00000000
C        C    0.38566667  0.09233333  0.06813333  0.00000000
C        C    0.29333333  0.38566667  0.93186667  0.00000000
C        C    0.96000000  0.71900000  0.26520000  0.00000000
C        C    0.37333333  0.94766667  0.40146667  0.00000000
C        C    0.71900000  0.75900000  0.73480000  0.00000000
C        C    0.62666667  0.05233333  0.59853333  0.00000000
C        C    0.09233333  0.70666667  0.93186667  0.00000000
C        C    0.05233333  0.42566667  0.40146667  0.00000000
C        C    0.56733333  0.60966667  0.39496667  0.00000000
C        C    0.62433333  0.90066667  0.93836667  0.00000000
C        C    0.23400000  0.94300000  0.72830000  0.00000000
C        C    0.43266667  0.39033333  0.60503333  0.00000000
C        C    0.95766667  0.56733333  0.60503333  0.00000000
C        C    0.05700000  0.29100000  0.72830000  0.00000000
C        C    0.29100000  0.23400000  0.27170000  0.00000000
C        C    0.90066667  0.27633333  0.06163333  0.00000000
C        C    0.76600000  0.05700000  0.27170000  0.00000000
C        C    0.72366667  0.62433333  0.06163333  0.00000000
C        C    0.37566667  0.09933333  0.06163333  0.00000000
C        C    0.27633333  0.37566667  0.93836667  0.00000000
C        C    0.94300000  0.70900000  0.27170000  0.00000000
C        C    0.39033333  0.95766667  0.39496667  0.00000000
C        C    0.70900000  0.76600000  0.72830000  0.00000000
C        C    0.60966667  0.04233333  0.60503333  0.00000000
C        C    0.09933333  0.72366667  0.93836667  0.00000000
C        C    0.04233333  0.43266667  0.39496667  0.00000000
C        C    0.53133333  0.56866667  0.38756667  0.00000000
C        C    0.62933333  0.86466667  0.94576667  0.00000000
C        C    0.19800000  0.90200000  0.72090000  0.00000000
C        C    0.46866667  0.43133333  0.61243333  0.00000000
C        C    0.96266667  0.53133333  0.61243333  0.00000000
C        C    0.09800000  0.29600000  0.72090000  0.00000000
C        C    0.29600000  0.19800000  0.27910000  0.00000000
C        C    0.86466667  0.23533333  0.05423333  0.00000000
C        C    0.80200000  0.09800000  0.27910000  0.00000000
C        C    0.76466667  0.62933333  0.05423333  0.00000000
C        C    0.37066667  0.13533333  0.05423333  0.00000000
C        C    0.23533333  0.37066667  0.94576667  0.00000000
C        C    0.90200000  0.70400000  0.27910000  0.00000000
C        C    0.43133333  0.96266667  0.38756667  0.00000000
C        C    0.70400000  0.80200000  0.72090000  0.00000000
C        C    0.56866667  0.03733333  0.61243333  0.00000000
C        C    0.13533333  0.76466667  0.94576667  0.00000000
C        C    0.03733333  0.46866667  0.38756667  0.00000000
H        H    0.51163333  0.55156667  0.38676667  0.00000000
H        H    0.62673333  0.84496667  0.94656667  0.00000000
H        H    0.17830000  0.88490000  0.72010000  0.00000000
H        H    0.48836667  0.44843333  0.61323333  0.00000000
H        H    0.96006667  0.51163333  0.61323333  0.00000000
H        H    0.11510000  0.29340000  0.72010000  0.00000000
H        H    0.29340000  0.17830000  0.27990000  0.00000000
H        H    0.84496667  0.21823333  0.05343333  0.00000000
H        H    0.82170000  0.11510000  0.27990000  0.00000000
H        H    0.78176667  0.62673333  0.05343333  0.00000000
H        H    0.37326667  0.15503333  0.05343333  0.00000000
H        H    0.21823333  0.37326667  0.94656667  0.00000000
H        H    0.88490000  0.70660000  0.27990000  0.00000000
H        H    0.44843333  0.96006667  0.38676667  0.00000000
H        H    0.70660000  0.82170000  0.72010000  0.00000000
H        H    0.55156667  0.03993333  0.61323333  0.00000000
H        H    0.15503333  0.78176667  0.94656667  0.00000000
H        H    0.03993333  0.48836667  0.38676667  0.00000000
C        C    0.53733333  0.58366667  0.39376667  0.00000000
C        C    0.62033333  0.87066667  0.93956667  0.00000000
C        C    0.20400000  0.91700000  0.72710000  0.00000000
C        C    0.46266667  0.41633333  0.60623333  0.00000000
C        C    0.95366667  0.53733333  0.60623333  0.00000000
C        C    0.08300000  0.28700000  0.72710000  0.00000000
C        C    0.28700000  0.20400000  0.27290000  0.00000000
C        C    0.87066667  0.25033333  0.06043333  0.00000000
C        C    0.79600000  0.08300000  0.27290000  0.00000000
C        C    0.74966667  0.62033333  0.06043333  0.00000000
C        C    0.37966667  0.12933333  0.06043333  0.00000000
C        C    0.25033333  0.37966667  0.93956667  0.00000000
C        C    0.91700000  0.71300000  0.27290000  0.00000000
C        C    0.41633333  0.95366667  0.39376667  0.00000000
C        C    0.71300000  0.79600000  0.72710000  0.00000000
C        C    0.58366667  0.04633333  0.60623333  0.00000000
C        C    0.12933333  0.74966667  0.93956667  0.00000000
C        C    0.04633333  0.46266667  0.39376667  0.00000000
H        H    0.52303333  0.57736667  0.39736667  0.00000000
H        H    0.61233333  0.85636667  0.93596667  0.00000000
H        H    0.18970000  0.91070000  0.73070000  0.00000000
H        H    0.47696667  0.42263333  0.60263333  0.00000000
H        H    0.94566667  0.52303333  0.60263333  0.00000000
H        H    0.08930000  0.27900000  0.73070000  0.00000000
H        H    0.27900000  0.18970000  0.26930000  0.00000000
H        H    0.85636667  0.24403333  0.06403333  0.00000000
H        H    0.81030000  0.08930000  0.26930000  0.00000000
H        H    0.75596667  0.61233333  0.06403333  0.00000000
H        H    0.38766667  0.14363333  0.06403333  0.00000000
H        H    0.24403333  0.38766667  0.93596667  0.00000000
H        H    0.91070000  0.72100000  0.26930000  0.00000000
H        H    0.42263333  0.94566667  0.39736667  0.00000000
H        H    0.72100000  0.81030000  0.73070000  0.00000000
H        H    0.57736667  0.05433333  0.60263333  0.00000000
H        H    0.14363333  0.75596667  0.93596667  0.00000000
H        H    0.05433333  0.47696667  0.39736667  0.00000000
C        C    0.52433333  0.53366667  0.36416667  0.00000000
C        C    0.65733333  0.85766667  0.96916667  0.00000000
C        C    0.19100000  0.86700000  0.69750000  0.00000000
C        C    0.47566667  0.46633333  0.63583333  0.00000000
C        C    0.99066667  0.52433333  0.63583333  0.00000000
C        C    0.13300000  0.32400000  0.69750000  0.00000000
C        C    0.32400000  0.19100000  0.30250000  0.00000000
C        C    0.85766667  0.20033333  0.03083333  0.00000000
C        C    0.80900000  0.13300000  0.30250000  0.00000000
C        C    0.79966667  0.65733333  0.03083333  0.00000000
C        C    0.34266667  0.14233333  0.03083333  0.00000000
C        C    0.20033333  0.34266667  0.96916667  0.00000000
C        C    0.86700000  0.67600000  0.30250000  0.00000000
C        C    0.46633333  0.99066667  0.36416667  0.00000000
C        C    0.67600000  0.80900000  0.69750000  0.00000000
C        C    0.53366667  0.00933333  0.63583333  0.00000000
C        C    0.14233333  0.79966667  0.96916667  0.00000000
C        C    0.00933333  0.47566667  0.36416667  0.00000000
C        C    0.53733333  0.54566667  0.35776667  0.00000000
C        C    0.65833333  0.87066667  0.97556667  0.00000000
C        C    0.20400000  0.87900000  0.69110000  0.00000000
C        C    0.46266667  0.45433333  0.64223333  0.00000000
C        C    0.99166667  0.53733333  0.64223333  0.00000000
C        C    0.12100000  0.32500000  0.69110000  0.00000000
C        C    0.32500000  0.20400000  0.30890000  0.00000000
C        C    0.87066667  0.21233333  0.02443333  0.00000000
C        C    0.79600000  0.12100000  0.30890000  0.00000000
C        C    0.78766667  0.65833333  0.02443333  0.00000000
C        C    0.34166667  0.12933333  0.02443333  0.00000000
C        C    0.21233333  0.34166667  0.97556667  0.00000000
C        C    0.87900000  0.67500000  0.30890000  0.00000000
C        C    0.45433333  0.99166667  0.35776667  0.00000000
C        C    0.67500000  0.79600000  0.69110000  0.00000000
C        C    0.54566667  0.00833333  0.64223333  0.00000000
C        C    0.12933333  0.78766667  0.97556667  0.00000000
C        C    0.00833333  0.46266667  0.35776667  0.00000000
H        H    0.55623333  0.56436667  0.35746667  0.00000000
H        H    0.65853333  0.88956667  0.97586667  0.00000000
H        H    0.22290000  0.89770000  0.69080000  0.00000000
H        H    0.44376667  0.43563333  0.64253333  0.00000000
H        H    0.99186667  0.55623333  0.64253333  0.00000000
H        H    0.10230000  0.32520000  0.69080000  0.00000000
H        H    0.32520000  0.22290000  0.30920000  0.00000000
H        H    0.88956667  0.23103333  0.02413333  0.00000000
H        H    0.77710000  0.10230000  0.30920000  0.00000000
H        H    0.76896667  0.65853333  0.02413333  0.00000000
H        H    0.34146667  0.11043333  0.02413333  0.00000000
H        H    0.23103333  0.34146667  0.97586667  0.00000000
H        H    0.89770000  0.67480000  0.30920000  0.00000000
H        H    0.43563333  0.99186667  0.35746667  0.00000000
H        H    0.67480000  0.77710000  0.69080000  0.00000000
H        H    0.56436667  0.00813333  0.64253333  0.00000000
H        H    0.11043333  0.76896667  0.97586667  0.00000000
H        H    0.00813333  0.44376667  0.35746667  0.00000000
C        C    0.52133333  0.53066667  0.35166667  0.00000000
C        C    0.65733333  0.85466667  0.98166667  0.00000000
C        C    0.18800000  0.86400000  0.68500000  0.00000000
C        C    0.47866667  0.46933333  0.64833333  0.00000000
C        C    0.99066667  0.52133333  0.64833333  0.00000000
C        C    0.13600000  0.32400000  0.68500000  0.00000000
C        C    0.32400000  0.18800000  0.31500000  0.00000000
C        C    0.85466667  0.19733333  0.01833333  0.00000000
C        C    0.81200000  0.13600000  0.31500000  0.00000000
C        C    0.80266667  0.65733333  0.01833333  0.00000000
C        C    0.34266667  0.14533333  0.01833333  0.00000000
C        C    0.19733333  0.34266667  0.98166667  0.00000000
C        C    0.86400000  0.67600000  0.31500000  0.00000000
C        C    0.46933333  0.99066667  0.35166667  0.00000000
C        C    0.67600000  0.81200000  0.68500000  0.00000000
C        C    0.53066667  0.00933333  0.64833333  0.00000000
C        C    0.14533333  0.80266667  0.98166667  0.00000000
C        C    0.00933333  0.47866667  0.35166667  0.00000000
C        C    0.49433333  0.50366667  0.35206667  0.00000000
C        C    0.65733333  0.82766667  0.98126667  0.00000000
C        C    0.16100000  0.83700000  0.68540000  0.00000000
C        C    0.50566667  0.49633333  0.64793333  0.00000000
C        C    0.99066667  0.49433333  0.64793333  0.00000000
C        C    0.16300000  0.32400000  0.68540000  0.00000000
C        C    0.32400000  0.16100000  0.31460000  0.00000000
C        C    0.82766667  0.17033333  0.01873333  0.00000000
C        C    0.83900000  0.16300000  0.31460000  0.00000000
C        C    0.82966667  0.65733333  0.01873333  0.00000000
C        C    0.34266667  0.17233333  0.01873333  0.00000000
C        C    0.17033333  0.34266667  0.98126667  0.00000000
C        C    0.83700000  0.67600000  0.31460000  0.00000000
C        C    0.49633333  0.99066667  0.35206667  0.00000000
C        C    0.67600000  0.83900000  0.68540000  0.00000000
C        C    0.50366667  0.00933333  0.64793333  0.00000000
C        C    0.17233333  0.82966667  0.98126667  0.00000000
C        C    0.00933333  0.50566667  0.35206667  0.00000000
H        H    0.48393333  0.49346667  0.34796667  0.00000000
H        H    0.65713333  0.81726667  0.98536667  0.00000000
H        H    0.15060000  0.82680000  0.68130000  0.00000000
H        H    0.51606667  0.50653333  0.65203333  0.00000000
H        H    0.99046667  0.48393333  0.65203333  0.00000000
H        H    0.17320000  0.32380000  0.68130000  0.00000000
H        H    0.32380000  0.15060000  0.31870000  0.00000000
H        H    0.81726667  0.16013333  0.01463333  0.00000000
H        H    0.84940000  0.17320000  0.31870000  0.00000000
H        H    0.83986667  0.65713333  0.01463333  0.00000000
H        H    0.34286667  0.18273333  0.01463333  0.00000000
H        H    0.16013333  0.34286667  0.98536667  0.00000000
H        H    0.82680000  0.67620000  0.31870000  0.00000000
H        H    0.50653333  0.99046667  0.34796667  0.00000000
H        H    0.67620000  0.84940000  0.68130000  0.00000000
H        H    0.49346667  0.00953333  0.65203333  0.00000000
H        H    0.18273333  0.83986667  0.98536667  0.00000000
H        H    0.00953333  0.51606667  0.34796667  0.00000000
C        C    0.48133333  0.49166667  0.35846667  0.00000000
C        C    0.65633333  0.81466667  0.97486667  0.00000000
C        C    0.14800000  0.82500000  0.69180000  0.00000000
C        C    0.51866667  0.50833333  0.64153333  0.00000000
C        C    0.98966667  0.48133333  0.64153333  0.00000000
C        C    0.17500000  0.32300000  0.69180000  0.00000000
C        C    0.32300000  0.14800000  0.30820000  0.00000000
C        C    0.81466667  0.15833333  0.02513333  0.00000000
C        C    0.85200000  0.17500000  0.30820000  0.00000000
C        C    0.84166667  0.65633333  0.02513333  0.00000000
C        C    0.34366667  0.18533333  0.02513333  0.00000000
C        C    0.15833333  0.34366667  0.97486667  0.00000000
C        C    0.82500000  0.67700000  0.30820000  0.00000000
C        C    0.50833333  0.98966667  0.35846667  0.00000000
C        C    0.67700000  0.85200000  0.69180000  0.00000000
C        C    0.49166667  0.01033333  0.64153333  0.00000000
C        C    0.18533333  0.84166667  0.97486667  0.00000000
C        C    0.01033333  0.51866667  0.35846667  0.00000000
C        C    0.49633333  0.50666667  0.36456667  0.00000000
C        C    0.65633333  0.82966667  0.96876667  0.00000000
C        C    0.16300000  0.84000000  0.69790000  0.00000000
C        C    0.50366667  0.49333333  0.63543333  0.00000000
C        C    0.98966667  0.49633333  0.63543333  0.00000000
C        C    0.16000000  0.32300000  0.69790000  0.00000000
C        C    0.32300000  0.16300000  0.30210000  0.00000000
C        C    0.82966667  0.17333333  0.03123333  0.00000000
C        C    0.83700000  0.16000000  0.30210000  0.00000000
C        C    0.82666667  0.65633333  0.03123333  0.00000000
C        C    0.34366667  0.17033333  0.03123333  0.00000000
C        C    0.17333333  0.34366667  0.96876667  0.00000000
C        C    0.84000000  0.67700000  0.30210000  0.00000000
C        C    0.49333333  0.98966667  0.36456667  0.00000000
C        C    0.67700000  0.83700000  0.69790000  0.00000000
C        C    0.50666667  0.01033333  0.63543333  0.00000000
C        C    0.17033333  0.82666667  0.96876667  0.00000000
C        C    0.01033333  0.50366667  0.36456667  0.00000000
H        H    0.48783333  0.49826667  0.36886667  0.00000000
H        H    0.65623333  0.82116667  0.96446667  0.00000000
H        H    0.15450000  0.83160000  0.70220000  0.00000000
H        H    0.51216667  0.50173333  0.63113333  0.00000000
H        H    0.98956667  0.48783333  0.63113333  0.00000000
H        H    0.16840000  0.32290000  0.70220000  0.00000000
H        H    0.32290000  0.15450000  0.29780000  0.00000000
H        H    0.82116667  0.16493333  0.03553333  0.00000000
H        H    0.84550000  0.16840000  0.29780000  0.00000000
H        H    0.83506667  0.65623333  0.03553333  0.00000000
H        H    0.34376667  0.17883333  0.03553333  0.00000000
H        H    0.16493333  0.34376667  0.96446667  0.00000000
H        H    0.83160000  0.67710000  0.29780000  0.00000000
H        H    0.50173333  0.98956667  0.36886667  0.00000000
H        H    0.67710000  0.84550000  0.70220000  0.00000000
H        H    0.49826667  0.01043333  0.63113333  0.00000000
H        H    0.17883333  0.83506667  0.96446667  0.00000000
H        H    0.01043333  0.51216667  0.36886667  0.00000000
C        C    0.39633333  0.42066667  0.35996667  0.00000000
C        C    0.64233333  0.72966667  0.97336667  0.00000000
C        C    0.06300000  0.75400000  0.69330000  0.00000000
C        C    0.60366667  0.57933333  0.64003333  0.00000000
C        C    0.97566667  0.39633333  0.64003333  0.00000000
C        C    0.24600000  0.30900000  0.69330000  0.00000000
C        C    0.30900000  0.06300000  0.30670000  0.00000000
C        C    0.72966667  0.08733333  0.02663333  0.00000000
C        C    0.93700000  0.24600000  0.30670000  0.00000000
C        C    0.91266667  0.64233333  0.02663333  0.00000000
C        C    0.35766667  0.27033333  0.02663333  0.00000000
C        C    0.08733333  0.35766667  0.97336667  0.00000000
C        C    0.75400000  0.69100000  0.30670000  0.00000000
C        C    0.57933333  0.97566667  0.35996667  0.00000000
C        C    0.69100000  0.93700000  0.69330000  0.00000000
C        C    0.42066667  0.02433333  0.64003333  0.00000000
C        C    0.27033333  0.91266667  0.97336667  0.00000000
C        C    0.02433333  0.60366667  0.35996667  0.00000000
C        C    0.38333333  0.40966667  0.36646667  0.00000000
C        C    0.64033333  0.71666667  0.96686667  0.00000000
C        C    0.05000000  0.74300000  0.69980000  0.00000000
C        C    0.61666667  0.59033333  0.63353333  0.00000000
C        C    0.97366667  0.38333333  0.63353333  0.00000000
C        C    0.25700000  0.30700000  0.69980000  0.00000000
C        C    0.30700000  0.05000000  0.30020000  0.00000000
C        C    0.71666667  0.07633333  0.03313333  0.00000000
C        C    0.95000000  0.25700000  0.30020000  0.00000000
C        C    0.92366667  0.64033333  0.03313333  0.00000000
C        C    0.35966667  0.28333333  0.03313333  0.00000000
C        C    0.07633333  0.35966667  0.96686667  0.00000000
C        C    0.74300000  0.69300000  0.30020000  0.00000000
C        C    0.59033333  0.97366667  0.36646667  0.00000000
C        C    0.69300000  0.95000000  0.69980000  0.00000000
C        C    0.40966667  0.02633333  0.63353333  0.00000000
C        C    0.28333333  0.92366667  0.96686667  0.00000000
C        C    0.02633333  0.61666667  0.36646667  0.00000000
H        H    0.39413333  0.41976667  0.37056667  0.00000000
H        H    0.64103333  0.72746667  0.96276667  0.00000000
H        H    0.06080000  0.75310000  0.70390000  0.00000000
H        H    0.60586667  0.58023333  0.62943333  0.00000000
H        H    0.97436667  0.39413333  0.62943333  0.00000000
H        H    0.24690000  0.30770000  0.70390000  0.00000000
H        H    0.30770000  0.06080000  0.29610000  0.00000000
H        H    0.72746667  0.08643333  0.03723333  0.00000000
H        H    0.93920000  0.24690000  0.29610000  0.00000000
H        H    0.91356667  0.64103333  0.03723333  0.00000000
H        H    0.35896667  0.27253333  0.03723333  0.00000000
H        H    0.08643333  0.35896667  0.96276667  0.00000000
H        H    0.75310000  0.69230000  0.29610000  0.00000000
H        H    0.58023333  0.97436667  0.37056667  0.00000000
H        H    0.69230000  0.93920000  0.70390000  0.00000000
H        H    0.41976667  0.02563333  0.62943333  0.00000000
H        H    0.27253333  0.91356667  0.96276667  0.00000000
H        H    0.02563333  0.60586667  0.37056667  0.00000000
C        C    0.35433333  0.38466667  0.36706667  0.00000000
C        C    0.63633333  0.68766667  0.96626667  0.00000000
C        C    0.02100000  0.71800000  0.70040000  0.00000000
C        C    0.64566667  0.61533333  0.63293333  0.00000000
C        C    0.96966667  0.35433333  0.63293333  0.00000000
C        C    0.28200000  0.30300000  0.70040000  0.00000000
C        C    0.30300000  0.02100000  0.29960000  0.00000000
C        C    0.68766667  0.05133333  0.03373333  0.00000000
C        C    0.97900000  0.28200000  0.29960000  0.00000000
C        C    0.94866667  0.63633333  0.03373333  0.00000000
C        C    0.36366667  0.31233333  0.03373333  0.00000000
C        C    0.05133333  0.36366667  0.96626667  0.00000000
C        C    0.71800000  0.69700000  0.29960000  0.00000000
C        C    0.61533333  0.96966667  0.36706667  0.00000000
C        C    0.69700000  0.97900000  0.70040000  0.00000000
C        C    0.38466667  0.03033333  0.63293333  0.00000000
C        C    0.31233333  0.94866667  0.96626667  0.00000000
C        C    0.03033333  0.64566667  0.36706667  0.00000000
H        H    0.34533333  0.37706667  0.37146667  0.00000000
H        H    0.63493333  0.67866667  0.96186667  0.00000000
H        H    0.01200000  0.71040000  0.70480000  0.00000000
H        H    0.65466667  0.62293333  0.62853333  0.00000000
H        H    0.96826667  0.34533333  0.62853333  0.00000000
H        H    0.28960000  0.30160000  0.70480000  0.00000000
H        H    0.30160000  0.01200000  0.29520000  0.00000000
H        H    0.67866667  0.04373333  0.03813333  0.00000000
H        H    0.98800000  0.28960000  0.29520000  0.00000000
H        H    0.95626667  0.63493333  0.03813333  0.00000000
H        H    0.36506667  0.32133333  0.03813333  0.00000000
H        H    0.04373333  0.36506667  0.96186667  0.00000000
H        H    0.71040000  0.69840000  0.29520000  0.00000000
H        H    0.62293333  0.96826667  0.37146667  0.00000000
H        H    0.69840000  0.98800000  0.70480000  0.00000000
H        H    0.37706667  0.03173333  0.62853333  0.00000000
H        H    0.32133333  0.95626667  0.96186667  0.00000000
H        H    0.03173333  0.65466667  0.37146667  0.00000000
C        C    0.33733333  0.36966667  0.36106667  0.00000000
C        C    0.63433333  0.67066667  0.97226667  0.00000000
C        C    0.00400000  0.70300000  0.69440000  0.00000000
C        C    0.66266667  0.63033333  0.63893333  0.00000000
C        C    0.96766667  0.33733333  0.63893333  0.00000000
C        C    0.29700000  0.30100000  0.69440000  0.00000000
C        C    0.30100000  0.00400000  0.30560000  0.00000000
C        C    0.67066667  0.03633333  0.02773333  0.00000000
C        C    0.99600000  0.29700000  0.30560000  0.00000000
C        C    0.96366667  0.63433333  0.02773333  0.00000000
C        C    0.36566667  0.32933333  0.02773333  0.00000000
C        C    0.03633333  0.36566667  0.97226667  0.00000000
C        C    0.70300000  0.69900000  0.30560000  0.00000000
C        C    0.63033333  0.96766667  0.36106667  0.00000000
C        C    0.69900000  0.99600000  0.69440000  0.00000000
C        C    0.36966667  0.03233333  0.63893333  0.00000000
C        C    0.32933333  0.96366667  0.97226667  0.00000000
C        C    0.03233333  0.66266667  0.36106667  0.00000000
C        C    0.34933333  0.38066667  0.35456667  0.00000000
C        C    0.63533333  0.68266667  0.97876667  0.00000000
C        C    0.01600000  0.71400000  0.68790000  0.00000000
C        C    0.65066667  0.61933333  0.64543333  0.00000000
C        C    0.96866667  0.34933333  0.64543333  0.00000000
C        C    0.28600000  0.30200000  0.68790000  0.00000000
C        C    0.30200000  0.01600000  0.31210000  0.00000000
C        C    0.68266667  0.04733333  0.02123333  0.00000000
C        C    0.98400000  0.28600000  0.31210000  0.00000000
C        C    0.95266667  0.63533333  0.02123333  0.00000000
C        C    0.36466667  0.31733333  0.02123333  0.00000000
C        C    0.04733333  0.36466667  0.97876667  0.00000000
C        C    0.71400000  0.69800000  0.31210000  0.00000000
C        C    0.61933333  0.96866667  0.35456667  0.00000000
C        C    0.69800000  0.98400000  0.68790000  0.00000000
C        C    0.38066667  0.03133333  0.64543333  0.00000000
C        C    0.31733333  0.95266667  0.97876667  0.00000000
C        C    0.03133333  0.65066667  0.35456667  0.00000000
H        H    0.33863333  0.37146667  0.35056667  0.00000000
H        H    0.63383333  0.67196667  0.98276667  0.00000000
H        H    0.00530000  0.70480000  0.68390000  0.00000000
H        H    0.66136667  0.62853333  0.64943333  0.00000000
H        H    0.96716667  0.33863333  0.64943333  0.00000000
H        H    0.29520000  0.30050000  0.68390000  0.00000000
H        H    0.30050000  0.00530000  0.31610000  0.00000000
H        H    0.67196667  0.03813333  0.01723333  0.00000000
H        H    0.99470000  0.29520000  0.31610000  0.00000000
H        H    0.96186667  0.63383333  0.01723333  0.00000000
H        H    0.36616667  0.32803333  0.01723333  0.00000000
H        H    0.03813333  0.36616667  0.98276667  0.00000000
H        H    0.70480000  0.69950000  0.31610000  0.00000000
H        H    0.62853333  0.96716667  0.35056667  0.00000000
H        H    0.69950000  0.99470000  0.68390000  0.00000000
H        H    0.37146667  0.03283333  0.64943333  0.00000000
H        H    0.32803333  0.96186667  0.98276667  0.00000000
H        H    0.03283333  0.66136667  0.35056667  0.00000000
C        C    0.37933333  0.40666667  0.35406667  0.00000000
C        C    0.63933333  0.71266667  0.97926667  0.00000000
C        C    0.04600000  0.74000000  0.68740000  0.00000000
C        C    0.62066667  0.59333333  0.64593333  0.00000000
C        C    0.97266667  0.37933333  0.64593333  0.00000000
C        C    0.26000000  0.30600000  0.68740000  0.00000000
C        C    0.30600000  0.04600000  0.31260000  0.00000000
C        C    0.71266667  0.07333333  0.02073333  0.00000000
C        C    0.95400000  0.26000000  0.31260000  0.00000000
C        C    0.92666667  0.63933333  0.02073333  0.00000000
C        C    0.36066667  0.28733333  0.02073333  0.00000000
C        C    0.07333333  0.36066667  0.97926667  0.00000000
C        C    0.74000000  0.69400000  0.31260000  0.00000000
C        C    0.59333333  0.97266667  0.35406667  0.00000000
C        C    0.69400000  0.95400000  0.68740000  0.00000000
C        C    0.40666667  0.02733333  0.64593333  0.00000000
C        C    0.28733333  0.92666667  0.97926667  0.00000000
C        C    0.02733333  0.62066667  0.35406667  0.00000000
H        H    0.38733333  0.41416667  0.34966667  0.00000000
H        H    0.63983333  0.72066667  0.98366667  0.00000000
H        H    0.05400000  0.74750000  0.68300000  0.00000000
H        H    0.61266667  0.58583333  0.65033333  0.00000000
H        H    0.97316667  0.38733333  0.65033333  0.00000000
H        H    0.25250000  0.30650000  0.68300000  0.00000000
H        H    0.30650000  0.05400000  0.31700000  0.00000000
H        H    0.72066667  0.08083333  0.01633333  0.00000000
H        H    0.94600000  0.25250000  0.31700000  0.00000000
H        H    0.91916667  0.63983333  0.01633333  0.00000000
H        H    0.36016667  0.27933333  0.01633333  0.00000000
H        H    0.08083333  0.36016667  0.98366667  0.00000000
H        H    0.74750000  0.69350000  0.31700000  0.00000000
H        H    0.58583333  0.97316667  0.34966667  0.00000000
H        H    0.69350000  0.94600000  0.68300000  0.00000000
H        H    0.41416667  0.02683333  0.65033333  0.00000000
H        H    0.27933333  0.91916667  0.98366667  0.00000000
H        H    0.02683333  0.61266667  0.34966667  0.00000000
C        C    0.55033333  0.57366667  0.33326667  0.00000000
C        C    0.64333333  0.88366667  0.00006667  0.00000000
C        C    0.21700000  0.90700000  0.66660000  0.00000000
C        C    0.44966667  0.42633333  0.66673333  0.00000000
C        C    0.97666667  0.55033333  0.66673333  0.00000000
C        C    0.09300000  0.31000000  0.66660000  0.00000000
C        C    0.31000000  0.21700000  0.33340000  0.00000000
C        C    0.88366667  0.24033333  0.99993333  0.00000000
C        C    0.78300000  0.09300000  0.33340000  0.00000000
C        C    0.75966667  0.64333333  0.99993333  0.00000000
C        C    0.35666667  0.11633333  0.99993333  0.00000000
C        C    0.24033333  0.35666667  0.00006667  0.00000000
C        C    0.90700000  0.69000000  0.33340000  0.00000000
C        C    0.42633333  0.97666667  0.33326667  0.00000000
C        C    0.69000000  0.78300000  0.66660000  0.00000000
C        C    0.57366667  0.02333333  0.66673333  0.00000000
C        C    0.11633333  0.75966667  0.00006667  0.00000000
C        C    0.02333333  0.44966667  0.33326667  0.00000000
C        C    0.59033333  0.61566667  0.32686667  0.00000000
C        C    0.64133333  0.92366667  0.00646667  0.00000000
C        C    0.25700000  0.94900000  0.66020000  0.00000000
C        C    0.40966667  0.38433333  0.67313333  0.00000000
C        C    0.97466667  0.59033333  0.67313333  0.00000000
C        C    0.05100000  0.30800000  0.66020000  0.00000000
C        C    0.30800000  0.25700000  0.33980000  0.00000000
C        C    0.92366667  0.28233333  0.99353333  0.00000000
C        C    0.74300000  0.05100000  0.33980000  0.00000000
C        C    0.71766667  0.64133333  0.99353333  0.00000000
C        C    0.35866667  0.07633333  0.99353333  0.00000000
C        C    0.28233333  0.35866667  0.00646667  0.00000000
C        C    0.94900000  0.69200000  0.33980000  0.00000000
C        C    0.38433333  0.97466667  0.32686667  0.00000000
C        C    0.69200000  0.74300000  0.66020000  0.00000000
C        C    0.61566667  0.02533333  0.67313333  0.00000000
C        C    0.07633333  0.71766667  0.00646667  0.00000000
C        C    0.02533333  0.40966667  0.32686667  0.00000000
H        H    0.61093333  0.63106667  0.32636667  0.00000000
H        H    0.64653333  0.94426667  0.00696667  0.00000000
H        H    0.27760000  0.96440000  0.65970000  0.00000000
H        H    0.38906667  0.36893333  0.67363333  0.00000000
H        H    0.97986667  0.61093333  0.67363333  0.00000000
H        H    0.03560000  0.31320000  0.65970000  0.00000000
H        H    0.31320000  0.27760000  0.34030000  0.00000000
H        H    0.94426667  0.29773333  0.99303333  0.00000000
H        H    0.72240000  0.03560000  0.34030000  0.00000000
H        H    0.70226667  0.64653333  0.99303333  0.00000000
H        H    0.35346667  0.05573333  0.99303333  0.00000000
H        H    0.29773333  0.35346667  0.00696667  0.00000000
H        H    0.96440000  0.68680000  0.34030000  0.00000000
H        H    0.36893333  0.97986667  0.32636667  0.00000000
H        H    0.68680000  0.72240000  0.65970000  0.00000000
H        H    0.63106667  0.02013333  0.67363333  0.00000000
H        H    0.05573333  0.70226667  0.00696667  0.00000000
H        H    0.02013333  0.38906667  0.32636667  0.00000000
C        C    0.58133333  0.59666667  0.33256667  0.00000000
C        C    0.65133333  0.91466667  0.00076667  0.00000000
C        C    0.24800000  0.93000000  0.66590000  0.00000000
C        C    0.41866667  0.40333333  0.66743333  0.00000000
C        C    0.98466667  0.58133333  0.66743333  0.00000000
C        C    0.07000000  0.31800000  0.66590000  0.00000000
C        C    0.31800000  0.24800000  0.33410000  0.00000000
C        C    0.91466667  0.26333333  0.99923333  0.00000000
C        C    0.75200000  0.07000000  0.33410000  0.00000000
C        C    0.73666667  0.65133333  0.99923333  0.00000000
C        C    0.34866667  0.08533333  0.99923333  0.00000000
C        C    0.26333333  0.34866667  0.00076667  0.00000000
C        C    0.93000000  0.68200000  0.33410000  0.00000000
C        C    0.40333333  0.98466667  0.33256667  0.00000000
C        C    0.68200000  0.75200000  0.66590000  0.00000000
C        C    0.59666667  0.01533333  0.66743333  0.00000000
C        C    0.08533333  0.73666667  0.00076667  0.00000000
C        C    0.01533333  0.41866667  0.33256667  0.00000000
H        H    0.59573333  0.59896667  0.33596667  0.00000000
H        H    0.66343333  0.92906667  0.99736667  0.00000000
H        H    0.26240000  0.93230000  0.66930000  0.00000000
H        H    0.40426667  0.40103333  0.66403333  0.00000000
H        H    0.99676667  0.59573333  0.66403333  0.00000000
H        H    0.06770000  0.33010000  0.66930000  0.00000000
H        H    0.33010000  0.26240000  0.33070000  0.00000000
H        H    0.92906667  0.26563333  0.00263333  0.00000000
H        H    0.73760000  0.06770000  0.33070000  0.00000000
H        H    0.73436667  0.66343333  0.00263333  0.00000000
H        H    0.33656667  0.07093333  0.00263333  0.00000000
H        H    0.26563333  0.33656667  0.99736667  0.00000000
H        H    0.93230000  0.66990000  0.33070000  0.00000000
H        H    0.40103333  0.99676667  0.33596667  0.00000000
H        H    0.66990000  0.73760000  0.66930000  0.00000000
H        H    0.59896667  0.00323333  0.66403333  0.00000000
H        H    0.07093333  0.73436667  0.99736667  0.00000000
H        H    0.00323333  0.40426667  0.33596667  0.00000000
C        C    0.58933333  0.61866667  0.38976667  0.00000000
C        C    0.63733333  0.92266667  0.94356667  0.00000000
C        C    0.25600000  0.95200000  0.72310000  0.00000000
C        C    0.41066667  0.38133333  0.61023333  0.00000000
C        C    0.97066667  0.58933333  0.61023333  0.00000000
C        C    0.04800000  0.30400000  0.72310000  0.00000000
C        C    0.30400000  0.25600000  0.27690000  0.00000000
C        C    0.92266667  0.28533333  0.05643333  0.00000000
C        C    0.74400000  0.04800000  0.27690000  0.00000000
C        C    0.71466667  0.63733333  0.05643333  0.00000000
C        C    0.36266667  0.07733333  0.05643333  0.00000000
C        C    0.28533333  0.36266667  0.94356667  0.00000000
C        C    0.95200000  0.69600000  0.27690000  0.00000000
C        C    0.38133333  0.97066667  0.38976667  0.00000000
C        C    0.69600000  0.74400000  0.72310000  0.00000000
C        C    0.61866667  0.02933333  0.61023333  0.00000000
C        C    0.07733333  0.71466667  0.94356667  0.00000000
C        C    0.02933333  0.41066667  0.38976667  0.00000000
H        H    0.60903333  0.63556667  0.39046667  0.00000000
H        H    0.64013333  0.94236667  0.94286667  0.00000000
H        H    0.27570000  0.96890000  0.72380000  0.00000000
H        H    0.39096667  0.36443333  0.60953333  0.00000000
H        H    0.97346667  0.60903333  0.60953333  0.00000000
H        H    0.03110000  0.30680000  0.72380000  0.00000000
H        H    0.30680000  0.27570000  0.27620000  0.00000000
H        H    0.94236667  0.30223333  0.05713333  0.00000000
H        H    0.72430000  0.03110000  0.27620000  0.00000000
H        H    0.69776667  0.64013333  0.05713333  0.00000000
H        H    0.35986667  0.05763333  0.05713333  0.00000000
H        H    0.30223333  0.35986667  0.94286667  0.00000000
H        H    0.96890000  0.69320000  0.27620000  0.00000000
H        H    0.36443333  0.97346667  0.39046667  0.00000000
H        H    0.69320000  0.72430000  0.72380000  0.00000000
H        H    0.63556667  0.02653333  0.60953333  0.00000000
H        H    0.05763333  0.69776667  0.94286667  0.00000000
H        H    0.02653333  0.39096667  0.39046667  0.00000000
C        C    0.58233333  0.60366667  0.38346667  0.00000000
C        C    0.64533333  0.91566667  0.94986667  0.00000000
C        C    0.24900000  0.93700000  0.71680000  0.00000000
C        C    0.41766667  0.39633333  0.61653333  0.00000000
C        C    0.97866667  0.58233333  0.61653333  0.00000000
C        C    0.06300000  0.31200000  0.71680000  0.00000000
C        C    0.31200000  0.24900000  0.28320000  0.00000000
C        C    0.91566667  0.27033333  0.05013333  0.00000000
C        C    0.75100000  0.06300000  0.28320000  0.00000000
C        C    0.72966667  0.64533333  0.05013333  0.00000000
C        C    0.35466667  0.08433333  0.05013333  0.00000000
C        C    0.27033333  0.35466667  0.94986667  0.00000000
C        C    0.93700000  0.68800000  0.28320000  0.00000000
C        C    0.39633333  0.97866667  0.38346667  0.00000000
C        C    0.68800000  0.75100000  0.71680000  0.00000000
C        C    0.60366667  0.02133333  0.61653333  0.00000000
C        C    0.08433333  0.72966667  0.94986667  0.00000000
C        C    0.02133333  0.41766667  0.38346667  0.00000000
H        H    0.59733333  0.60966667  0.37996667  0.00000000
H        H    0.65433333  0.93066667  0.95336667  0.00000000
H        H    0.26400000  0.94300000  0.71330000  0.00000000
H        H    0.40266667  0.39033333  0.62003333  0.00000000
H        H    0.98766667  0.59733333  0.62003333  0.00000000
H        H    0.05700000  0.32100000  0.71330000  0.00000000
H        H    0.32100000  0.26400000  0.28670000  0.00000000
H        H    0.93066667  0.27633333  0.04663333  0.00000000
H        H    0.73600000  0.05700000  0.28670000  0.00000000
H        H    0.72366667  0.65433333  0.04663333  0.00000000
H        H    0.34566667  0.06933333  0.04663333  0.00000000
H        H    0.27633333  0.34566667  0.95336667  0.00000000
H        H    0.94300000  0.67900000  0.28670000  0.00000000
H        H    0.39033333  0.98766667  0.37996667  0.00000000
H        H    0.67900000  0.73600000  0.71330000  0.00000000
H        H    0.60966667  0.01233333  0.62003333  0.00000000
H        H    0.06933333  0.72366667  0.95336667  0.00000000
H        H    0.01233333  0.40266667  0.37996667  0.00000000
C        C    0.55333333  0.57866667  0.38236667  0.00000000
C        C    0.64133333  0.88666667  0.95096667  0.00000000
C        C    0.22000000  0.91200000  0.71570000  0.00000000
C        C    0.44666667  0.42133333  0.61763333  0.00000000
C        C    0.97466667  0.55333333  0.61763333  0.00000000
C        C    0.08800000  0.30800000  0.71570000  0.00000000
C        C    0.30800000  0.22000000  0.28430000  0.00000000
C        C    0.88666667  0.24533333  0.04903333  0.00000000
C        C    0.78000000  0.08800000  0.28430000  0.00000000
C        C    0.75466667  0.64133333  0.04903333  0.00000000
C        C    0.35866667  0.11333333  0.04903333  0.00000000
C        C    0.24533333  0.35866667  0.95096667  0.00000000
C        C    0.91200000  0.69200000  0.28430000  0.00000000
C        C    0.42133333  0.97466667  0.38236667  0.00000000
C        C    0.69200000  0.78000000  0.71570000  0.00000000
C        C    0.57866667  0.02533333  0.61763333  0.00000000
C        C    0.11333333  0.75466667  0.95096667  0.00000000
C        C    0.02533333  0.44666667  0.38236667  0.00000000
C        C    0.53233333  0.54466667  0.34516667  0.00000000
C        C    0.65433333  0.86566667  0.98816667  0.00000000
C        C    0.19900000  0.87800000  0.67850000  0.00000000
C        C    0.46766667  0.45533333  0.65483333  0.00000000
C        C    0.98766667  0.53233333  0.65483333  0.00000000
C        C    0.12200000  0.32100000  0.67850000  0.00000000
C        C    0.32100000  0.19900000  0.32150000  0.00000000
C        C    0.86566667  0.21133333  0.01183333  0.00000000
C        C    0.80100000  0.12200000  0.32150000  0.00000000
C        C    0.78866667  0.65433333  0.01183333  0.00000000
C        C    0.34566667  0.13433333  0.01183333  0.00000000
C        C    0.21133333  0.34566667  0.98816667  0.00000000
C        C    0.87800000  0.67900000  0.32150000  0.00000000
C        C    0.45533333  0.98766667  0.34516667  0.00000000
C        C    0.67900000  0.80100000  0.67850000  0.00000000
C        C    0.54466667  0.01233333  0.65483333  0.00000000
C        C    0.13433333  0.78866667  0.98816667  0.00000000
C        C    0.01233333  0.46766667  0.34516667  0.00000000
C        C    0.54133333  0.55766667  0.33966667  0.00000000
C        C    0.65033333  0.87466667  0.99366667  0.00000000
C        C    0.20800000  0.89100000  0.67300000  0.00000000
C        C    0.45866667  0.44233333  0.66033333  0.00000000
C        C    0.98366667  0.54133333  0.66033333  0.00000000
C        C    0.10900000  0.31700000  0.67300000  0.00000000
C        C    0.31700000  0.20800000  0.32700000  0.00000000
C        C    0.87466667  0.22433333  0.00633333  0.00000000
C        C    0.79200000  0.10900000  0.32700000  0.00000000
C        C    0.77566667  0.65033333  0.00633333  0.00000000
C        C    0.34966667  0.12533333  0.00633333  0.00000000
C        C    0.22433333  0.34966667  0.99366667  0.00000000
C        C    0.89100000  0.68300000  0.32700000  0.00000000
C        C    0.44233333  0.98366667  0.33966667  0.00000000
C        C    0.68300000  0.79200000  0.67300000  0.00000000
C        C    0.55766667  0.01633333  0.66033333  0.00000000
C        C    0.12533333  0.77566667  0.99366667  0.00000000
C        C    0.01633333  0.45866667  0.33966667  0.00000000
C        C    0.42633333  0.44566667  0.35936667  0.00000000
C        C    0.64733333  0.75966667  0.97396667  0.00000000
C        C    0.09300000  0.77900000  0.69270000  0.00000000
C        C    0.57366667  0.55433333  0.64063333  0.00000000
C        C    0.98066667  0.42633333  0.64063333  0.00000000
C        C    0.22100000  0.31400000  0.69270000  0.00000000
C        C    0.31400000  0.09300000  0.30730000  0.00000000
C        C    0.75966667  0.11233333  0.02603333  0.00000000
C        C    0.90700000  0.22100000  0.30730000  0.00000000
C        C    0.88766667  0.64733333  0.02603333  0.00000000
C        C    0.35266667  0.24033333  0.02603333  0.00000000
C        C    0.11233333  0.35266667  0.97396667  0.00000000
C        C    0.77900000  0.68600000  0.30730000  0.00000000
C        C    0.55433333  0.98066667  0.35936667  0.00000000
C        C    0.68600000  0.90700000  0.69270000  0.00000000
C        C    0.44566667  0.01933333  0.64063333  0.00000000
C        C    0.24033333  0.88766667  0.97396667  0.00000000
C        C    0.01933333  0.57366667  0.35936667  0.00000000
C        C    0.45133333  0.46666667  0.35896667  0.00000000
C        C    0.65133333  0.78466667  0.97436667  0.00000000
C        C    0.11800000  0.80000000  0.69230000  0.00000000
C        C    0.54866667  0.53333333  0.64103333  0.00000000
C        C    0.98466667  0.45133333  0.64103333  0.00000000
C        C    0.20000000  0.31800000  0.69230000  0.00000000
C        C    0.31800000  0.11800000  0.30770000  0.00000000
C        C    0.78466667  0.13333333  0.02563333  0.00000000
C        C    0.88200000  0.20000000  0.30770000  0.00000000
C        C    0.86666667  0.65133333  0.02563333  0.00000000
C        C    0.34866667  0.21533333  0.02563333  0.00000000
C        C    0.13333333  0.34866667  0.97436667  0.00000000
C        C    0.80000000  0.68200000  0.30770000  0.00000000
C        C    0.53333333  0.98466667  0.35896667  0.00000000
C        C    0.68200000  0.88200000  0.69230000  0.00000000
C        C    0.46666667  0.01533333  0.64103333  0.00000000
C        C    0.21533333  0.86666667  0.97436667  0.00000000
C        C    0.01533333  0.54866667  0.35896667  0.00000000
C        C    0.54533333  0.56366667  0.37576667  0.00000000
C        C    0.64833333  0.87866667  0.95756667  0.00000000
C        C    0.21200000  0.89700000  0.70910000  0.00000000
C        C    0.45466667  0.43633333  0.62423333  0.00000000
C        C    0.98166667  0.54533333  0.62423333  0.00000000
C        C    0.10300000  0.31500000  0.70910000  0.00000000
C        C    0.31500000  0.21200000  0.29090000  0.00000000
C        C    0.87866667  0.23033333  0.04243333  0.00000000
C        C    0.78800000  0.10300000  0.29090000  0.00000000
C        C    0.76966667  0.64833333  0.04243333  0.00000000
C        C    0.35166667  0.12133333  0.04243333  0.00000000
C        C    0.23033333  0.35166667  0.95756667  0.00000000
C        C    0.89700000  0.68500000  0.29090000  0.00000000
C        C    0.43633333  0.98166667  0.37576667  0.00000000
C        C    0.68500000  0.78800000  0.70910000  0.00000000
C        C    0.56366667  0.01833333  0.62423333  0.00000000
C        C    0.12133333  0.76966667  0.95756667  0.00000000
C        C    0.01833333  0.45466667  0.37576667  0.00000000
C        C    0.53733333  0.55066667  0.37036667  0.00000000
C        C    0.65333333  0.87066667  0.96296667  0.00000000
C        C    0.20400000  0.88400000  0.70370000  0.00000000
C        C    0.46266667  0.44933333  0.62963333  0.00000000
C        C    0.98666667  0.53733333  0.62963333  0.00000000
C        C    0.11600000  0.32000000  0.70370000  0.00000000
C        C    0.32000000  0.20400000  0.29630000  0.00000000
C        C    0.87066667  0.21733333  0.03703333  0.00000000
C        C    0.79600000  0.11600000  0.29630000  0.00000000
C        C    0.78266667  0.65333333  0.03703333  0.00000000
C        C    0.34666667  0.12933333  0.03703333  0.00000000
C        C    0.21733333  0.34666667  0.96296667  0.00000000
C        C    0.88400000  0.68000000  0.29630000  0.00000000
C        C    0.44933333  0.98666667  0.37036667  0.00000000
C        C    0.68000000  0.79600000  0.70370000  0.00000000
C        C    0.55066667  0.01333333  0.62963333  0.00000000
C        C    0.12933333  0.78266667  0.96296667  0.00000000
C        C    0.01333333  0.46266667  0.37036667  0.00000000
C        C    0.53033333  0.56966667  0.32816667  0.00000000
C        C    0.62733333  0.86366667  0.00516667  0.00000000
C        C    0.19700000  0.90300000  0.66150000  0.00000000
C        C    0.46966667  0.43033333  0.67183333  0.00000000
C        C    0.96066667  0.53033333  0.67183333  0.00000000
C        C    0.09700000  0.29400000  0.66150000  0.00000000
C        C    0.29400000  0.19700000  0.33850000  0.00000000
C        C    0.86366667  0.23633333  0.99483333  0.00000000
C        C    0.80300000  0.09700000  0.33850000  0.00000000
C        C    0.76366667  0.62733333  0.99483333  0.00000000
C        C    0.37266667  0.13633333  0.99483333  0.00000000
C        C    0.23633333  0.37266667  0.00516667  0.00000000
C        C    0.90300000  0.70600000  0.33850000  0.00000000
C        C    0.43033333  0.96066667  0.32816667  0.00000000
C        C    0.70600000  0.80300000  0.66150000  0.00000000
C        C    0.56966667  0.03933333  0.67183333  0.00000000
C        C    0.13633333  0.76366667  0.00516667  0.00000000
C        C    0.03933333  0.46966667  0.32816667  0.00000000
H        H    0.50913333  0.55326667  0.32856667  0.00000000
H        H    0.62253333  0.84246667  0.00476667  0.00000000
H        H    0.17580000  0.88660000  0.66190000  0.00000000
H        H    0.49086667  0.44673333  0.67143333  0.00000000
H        H    0.95586667  0.50913333  0.67143333  0.00000000
H        H    0.11340000  0.28920000  0.66190000  0.00000000
H        H    0.28920000  0.17580000  0.33810000  0.00000000
H        H    0.84246667  0.21993333  0.99523333  0.00000000
H        H    0.82420000  0.11340000  0.33810000  0.00000000
H        H    0.78006667  0.62253333  0.99523333  0.00000000
H        H    0.37746667  0.15753333  0.99523333  0.00000000
H        H    0.21993333  0.37746667  0.00476667  0.00000000
H        H    0.88660000  0.71080000  0.33810000  0.00000000
H        H    0.44673333  0.95586667  0.32856667  0.00000000
H        H    0.71080000  0.82420000  0.66190000  0.00000000
H        H    0.55326667  0.04413333  0.67143333  0.00000000
H        H    0.15753333  0.78006667  0.00476667  0.00000000
H        H    0.04413333  0.49086667  0.32856667  0.00000000
C        C    0.53933333  0.58866667  0.32236667  0.00000000
C        C    0.61733333  0.87266667  0.01096667  0.00000000
C        C    0.20600000  0.92200000  0.65570000  0.00000000
C        C    0.46066667  0.41133333  0.67763333  0.00000000
C        C    0.95066667  0.53933333  0.67763333  0.00000000
C        C    0.07800000  0.28400000  0.65570000  0.00000000
C        C    0.28400000  0.20600000  0.34430000  0.00000000
C        C    0.87266667  0.25533333  0.98903333  0.00000000
C        C    0.79400000  0.07800000  0.34430000  0.00000000
C        C    0.74466667  0.61733333  0.98903333  0.00000000
C        C    0.38266667  0.12733333  0.98903333  0.00000000
C        C    0.25533333  0.38266667  0.01096667  0.00000000
C        C    0.92200000  0.71600000  0.34430000  0.00000000
C        C    0.41133333  0.95066667  0.32236667  0.00000000
C        C    0.71600000  0.79400000  0.65570000  0.00000000
C        C    0.58866667  0.04933333  0.67763333  0.00000000
C        C    0.12733333  0.74466667  0.01096667  0.00000000
C        C    0.04933333  0.46066667  0.32236667  0.00000000
H        H    0.52443333  0.58516667  0.31886667  0.00000000
H        H    0.60593333  0.85776667  0.01446667  0.00000000
H        H    0.19110000  0.91850000  0.65220000  0.00000000
H        H    0.47556667  0.41483333  0.68113333  0.00000000
H        H    0.93926667  0.52443333  0.68113333  0.00000000
H        H    0.08150000  0.27260000  0.65220000  0.00000000
H        H    0.27260000  0.19110000  0.34780000  0.00000000
H        H    0.85776667  0.25183333  0.98553333  0.00000000
H        H    0.80890000  0.08150000  0.34780000  0.00000000
H        H    0.74816667  0.60593333  0.98553333  0.00000000
H        H    0.39406667  0.14223333  0.98553333  0.00000000
H        H    0.25183333  0.39406667  0.01446667  0.00000000
H        H    0.91850000  0.72740000  0.34780000  0.00000000
H        H    0.41483333  0.93926667  0.31886667  0.00000000
H        H    0.72740000  0.80890000  0.65220000  0.00000000
H        H    0.58516667  0.06073333  0.68113333  0.00000000
H        H    0.14223333  0.74816667  0.01446667  0.00000000
H        H    0.06073333  0.47556667  0.31886667  0.00000000
C        C    0.56933333  0.61266667  0.32176667  0.00000000
C        C    0.62333333  0.90266667  0.01156667  0.00000000
C        C    0.23600000  0.94600000  0.65510000  0.00000000
C        C    0.43066667  0.38733333  0.67823333  0.00000000
C        C    0.95666667  0.56933333  0.67823333  0.00000000
C        C    0.05400000  0.29000000  0.65510000  0.00000000
C        C    0.29000000  0.23600000  0.34490000  0.00000000
C        C    0.90266667  0.27933333  0.98843333  0.00000000
C        C    0.76400000  0.05400000  0.34490000  0.00000000
C        C    0.72066667  0.62333333  0.98843333  0.00000000
C        C    0.37666667  0.09733333  0.98843333  0.00000000
C        C    0.27933333  0.37666667  0.01156667  0.00000000
C        C    0.94600000  0.71000000  0.34490000  0.00000000
C        C    0.38733333  0.95666667  0.32176667  0.00000000
C        C    0.71000000  0.76400000  0.65510000  0.00000000
C        C    0.61266667  0.04333333  0.67823333  0.00000000
C        C    0.09733333  0.72066667  0.01156667  0.00000000
C        C    0.04333333  0.43066667  0.32176667  0.00000000
C        C    0.49633333  0.66666667  0.41626667  0.00000000
C        C    0.49633333  0.82966667  0.91706667  0.00000000
C        C    0.16300000  0.00000000  0.74960000  0.00000000
C        C    0.50366667  0.33333333  0.58373333  0.00000000
C        C    0.82966667  0.49633333  0.58373333  0.00000000
C        C    0.00000000  0.16300000  0.74960000  0.00000000
C        C    0.16300000  0.16300000  0.25040000  0.00000000
C        C    0.82966667  0.33333333  0.08293333  0.00000000
C        C    0.83700000  0.00000000  0.25040000  0.00000000
C        C    0.66666667  0.49633333  0.08293333  0.00000000
C        C    0.50366667  0.17033333  0.08293333  0.00000000
C        C    0.33333333  0.50366667  0.91706667  0.00000000
C        C    0.00000000  0.83700000  0.25040000  0.00000000
C        C    0.33333333  0.82966667  0.41626667  0.00000000
C        C    0.83700000  0.83700000  0.74960000  0.00000000
C        C    0.66666667  0.17033333  0.58373333  0.00000000
C        C    0.17033333  0.66666667  0.91706667  0.00000000
C        C    0.17033333  0.50366667  0.41626667  0.00000000
C        C    0.44133333  0.64066667  0.41436667  0.00000000
C        C    0.46733333  0.77466667  0.91896667  0.00000000
C        C    0.10800000  0.97400000  0.74770000  0.00000000
C        C    0.55866667  0.35933333  0.58563333  0.00000000
C        C    0.80066667  0.44133333  0.58563333  0.00000000
C        C    0.02600000  0.13400000  0.74770000  0.00000000
C        C    0.13400000  0.10800000  0.25230000  0.00000000
C        C    0.77466667  0.30733333  0.08103333  0.00000000
C        C    0.89200000  0.02600000  0.25230000  0.00000000
C        C    0.69266667  0.46733333  0.08103333  0.00000000
C        C    0.53266667  0.22533333  0.08103333  0.00000000
C        C    0.30733333  0.53266667  0.91896667  0.00000000
C        C    0.97400000  0.86600000  0.25230000  0.00000000
C        C    0.35933333  0.80066667  0.41436667  0.00000000
C        C    0.86600000  0.89200000  0.74770000  0.00000000
C        C    0.64066667  0.19933333  0.58563333  0.00000000
C        C    0.22533333  0.69266667  0.91896667  0.00000000
C        C    0.19933333  0.55866667  0.41436667  0.00000000
H        H    0.42353333  0.62276667  0.41316667  0.00000000
H        H    0.46743333  0.75686667  0.92016667  0.00000000
H        H    0.09020000  0.95610000  0.74650000  0.00000000
H        H    0.57646667  0.37723333  0.58683333  0.00000000
H        H    0.80076667  0.42353333  0.58683333  0.00000000
H        H    0.04390000  0.13410000  0.74650000  0.00000000
H        H    0.13410000  0.09020000  0.25350000  0.00000000
H        H    0.75686667  0.28943333  0.07983333  0.00000000
H        H    0.90980000  0.04390000  0.25350000  0.00000000
H        H    0.71056667  0.46743333  0.07983333  0.00000000
H        H    0.53256667  0.24313333  0.07983333  0.00000000
H        H    0.28943333  0.53256667  0.92016667  0.00000000
H        H    0.95610000  0.86590000  0.25350000  0.00000000
H        H    0.37723333  0.80076667  0.41316667  0.00000000
H        H    0.86590000  0.90980000  0.74650000  0.00000000
H        H    0.62276667  0.19923333  0.58683333  0.00000000
H        H    0.24313333  0.71056667  0.92016667  0.00000000
H        H    0.19923333  0.57646667  0.41316667  0.00000000
C        C    0.46933333  0.64066667  0.41436667  0.00000000
C        C    0.49533333  0.80266667  0.91896667  0.00000000
C        C    0.13600000  0.97400000  0.74770000  0.00000000
C        C    0.53066667  0.35933333  0.58563333  0.00000000
C        C    0.82866667  0.46933333  0.58563333  0.00000000
C        C    0.02600000  0.16200000  0.74770000  0.00000000
C        C    0.16200000  0.13600000  0.25230000  0.00000000
C        C    0.80266667  0.30733333  0.08103333  0.00000000
C        C    0.86400000  0.02600000  0.25230000  0.00000000
C        C    0.69266667  0.49533333  0.08103333  0.00000000
C        C    0.50466667  0.19733333  0.08103333  0.00000000
C        C    0.30733333  0.50466667  0.91896667  0.00000000
C        C    0.97400000  0.83800000  0.25230000  0.00000000
C        C    0.35933333  0.82866667  0.41436667  0.00000000
C        C    0.83800000  0.86400000  0.74770000  0.00000000
C        C    0.64066667  0.17133333  0.58563333  0.00000000
C        C    0.19733333  0.69266667  0.91896667  0.00000000
C        C    0.17133333  0.53066667  0.41436667  0.00000000
H        H    0.46963333  0.62266667  0.41326667  0.00000000
H        H    0.51363333  0.80296667  0.92006667  0.00000000
H        H    0.13630000  0.95600000  0.74660000  0.00000000
H        H    0.53036667  0.37733333  0.58673333  0.00000000
H        H    0.84696667  0.46963333  0.58673333  0.00000000
H        H    0.04400000  0.18030000  0.74660000  0.00000000
H        H    0.18030000  0.13630000  0.25340000  0.00000000
H        H    0.80296667  0.28933333  0.07993333  0.00000000
H        H    0.86370000  0.04400000  0.25340000  0.00000000
H        H    0.71066667  0.51363333  0.07993333  0.00000000
H        H    0.48636667  0.19703333  0.07993333  0.00000000
H        H    0.28933333  0.48636667  0.92006667  0.00000000
H        H    0.95600000  0.81970000  0.25340000  0.00000000
H        H    0.37733333  0.84696667  0.41326667  0.00000000
H        H    0.81970000  0.86370000  0.74660000  0.00000000
H        H    0.62266667  0.15303333  0.58673333  0.00000000
H        H    0.19703333  0.71066667  0.92006667  0.00000000
H        H    0.15303333  0.53036667  0.41326667  0.00000000
C        C    0.36033333  0.66666667  0.41586667  0.00000000
C        C    0.36033333  0.69366667  0.91746667  0.00000000
C        C    0.02700000  0.00000000  0.74920000  0.00000000
C        C    0.63966667  0.33333333  0.58413333  0.00000000
C        C    0.69366667  0.36033333  0.58413333  0.00000000
C        C    0.00000000  0.02700000  0.74920000  0.00000000
C        C    0.02700000  0.02700000  0.25080000  0.00000000
C        C    0.69366667  0.33333333  0.08253333  0.00000000
C        C    0.97300000  0.00000000  0.25080000  0.00000000
C        C    0.66666667  0.36033333  0.08253333  0.00000000
C        C    0.63966667  0.30633333  0.08253333  0.00000000
C        C    0.33333333  0.63966667  0.91746667  0.00000000
C        C    0.00000000  0.97300000  0.25080000  0.00000000
C        C    0.33333333  0.69366667  0.41586667  0.00000000
C        C    0.97300000  0.97300000  0.74920000  0.00000000
C        C    0.66666667  0.30633333  0.58413333  0.00000000
C        C    0.30633333  0.66666667  0.91746667  0.00000000
C        C    0.30633333  0.63966667  0.41586667  0.00000000
C        C    0.36133333  0.69466667  0.41586667  0.00000000
C        C    0.33333333  0.69466667  0.91746667  0.00000000
C        C    0.02800000  0.02800000  0.74920000  0.00000000
C        C    0.63866667  0.30533333  0.58413333  0.00000000
C        C    0.66666667  0.36133333  0.58413333  0.00000000
C        C    0.97200000  0.00000000  0.74920000  0.00000000
C        C    0.00000000  0.02800000  0.25080000  0.00000000
C        C    0.69466667  0.36133333  0.08253333  0.00000000
C        C    0.97200000  0.97200000  0.25080000  0.00000000
C        C    0.63866667  0.33333333  0.08253333  0.00000000
C        C    0.66666667  0.30533333  0.08253333  0.00000000
C        C    0.36133333  0.66666667  0.91746667  0.00000000
C        C    0.02800000  0.00000000  0.25080000  0.00000000
C        C    0.30533333  0.66666667  0.41586667  0.00000000
C        C    0.00000000  0.97200000  0.74920000  0.00000000
C        C    0.69466667  0.33333333  0.58413333  0.00000000
C        C    0.30533333  0.63866667  0.91746667  0.00000000
C        C    0.33333333  0.63866667  0.41586667  0.00000000
H        H    0.37943333  0.71306667  0.41586667  0.00000000
H        H    0.33303333  0.71276667  0.91746667  0.00000000
H        H    0.04610000  0.04640000  0.74920000  0.00000000
H        H    0.62056667  0.28693333  0.58413333  0.00000000
H        H    0.66636667  0.37943333  0.58413333  0.00000000
H        H    0.95360000  0.99970000  0.74920000  0.00000000
H        H    0.99970000  0.04610000  0.25080000  0.00000000
H        H    0.71276667  0.37973333  0.08253333  0.00000000
H        H    0.95390000  0.95360000  0.25080000  0.00000000
H        H    0.62026667  0.33303333  0.08253333  0.00000000
H        H    0.66696667  0.28723333  0.08253333  0.00000000
H        H    0.37973333  0.66696667  0.91746667  0.00000000
H        H    0.04640000  0.00030000  0.25080000  0.00000000
H        H    0.28693333  0.66636667  0.41586667  0.00000000
H        H    0.00030000  0.95390000  0.74920000  0.00000000
H        H    0.71306667  0.33363333  0.58413333  0.00000000
H        H    0.28723333  0.62026667  0.91746667  0.00000000
H        H    0.33363333  0.62056667  0.41586667  0.00000000
C        C    0.44033333  0.66666667  0.41606667  0.00000000
C        C    0.44033333  0.77366667  0.91726667  0.00000000
C        C    0.10700000  0.00000000  0.74940000  0.00000000
C        C    0.55966667  0.33333333  0.58393333  0.00000000
C        C    0.77366667  0.44033333  0.58393333  0.00000000
C        C    0.00000000  0.10700000  0.74940000  0.00000000
C        C    0.10700000  0.10700000  0.25060000  0.00000000
C        C    0.77366667  0.33333333  0.08273333  0.00000000
C        C    0.89300000  0.00000000  0.25060000  0.00000000
C        C    0.66666667  0.44033333  0.08273333  0.00000000
C        C    0.55966667  0.22633333  0.08273333  0.00000000
C        C    0.33333333  0.55966667  0.91726667  0.00000000
C        C    0.00000000  0.89300000  0.25060000  0.00000000
C        C    0.33333333  0.77366667  0.41606667  0.00000000
C        C    0.89300000  0.89300000  0.74940000  0.00000000
C        C    0.66666667  0.22633333  0.58393333  0.00000000
C        C    0.22633333  0.66666667  0.91726667  0.00000000
C        C    0.22633333  0.55966667  0.41606667  0.00000000
C        C    0.49533333  0.69366667  0.41796667  0.00000000
C        C    0.46833333  0.82866667  0.91536667  0.00000000
C        C    0.16200000  0.02700000  0.75130000  0.00000000
C        C    0.50466667  0.30633333  0.58203333  0.00000000
C        C    0.80166667  0.49533333  0.58203333  0.00000000
C        C    0.97300000  0.13500000  0.75130000  0.00000000
C        C    0.13500000  0.16200000  0.24870000  0.00000000
C        C    0.82866667  0.36033333  0.08463333  0.00000000
C        C    0.83800000  0.97300000  0.24870000  0.00000000
C        C    0.63966667  0.46833333  0.08463333  0.00000000
C        C    0.53166667  0.17133333  0.08463333  0.00000000
C        C    0.36033333  0.53166667  0.91536667  0.00000000
C        C    0.02700000  0.86500000  0.24870000  0.00000000
C        C    0.30633333  0.80166667  0.41796667  0.00000000
C        C    0.86500000  0.83800000  0.75130000  0.00000000
C        C    0.69366667  0.19833333  0.58203333  0.00000000
C        C    0.17133333  0.63966667  0.91536667  0.00000000
C        C    0.19833333  0.50466667  0.41796667  0.00000000
H        H    0.51393333  0.71166667  0.41916667  0.00000000
H        H    0.46893333  0.84726667  0.91416667  0.00000000
H        H    0.18060000  0.04500000  0.75250000  0.00000000
H        H    0.48606667  0.28833333  0.58083333  0.00000000
H        H    0.80226667  0.51393333  0.58083333  0.00000000
H        H    0.95500000  0.13560000  0.75250000  0.00000000
H        H    0.13560000  0.18060000  0.24750000  0.00000000
H        H    0.84726667  0.37833333  0.08583333  0.00000000
H        H    0.81940000  0.95500000  0.24750000  0.00000000
H        H    0.62166667  0.46893333  0.08583333  0.00000000
H        H    0.53106667  0.15273333  0.08583333  0.00000000
H        H    0.37833333  0.53106667  0.91416667  0.00000000
H        H    0.04500000  0.86440000  0.24750000  0.00000000
H        H    0.28833333  0.80226667  0.41916667  0.00000000
H        H    0.86440000  0.81940000  0.75250000  0.00000000
H        H    0.71166667  0.19773333  0.58083333  0.00000000
H        H    0.15273333  0.62166667  0.91416667  0.00000000
H        H    0.19773333  0.48606667  0.41916667  0.00000000
C        C    0.46833333  0.69366667  0.41786667  0.00000000
C        C    0.44133333  0.80166667  0.91546667  0.00000000
C        C    0.13500000  0.02700000  0.75120000  0.00000000
C        C    0.53166667  0.30633333  0.58213333  0.00000000
C        C    0.77466667  0.46833333  0.58213333  0.00000000
C        C    0.97300000  0.10800000  0.75120000  0.00000000
C        C    0.10800000  0.13500000  0.24880000  0.00000000
C        C    0.80166667  0.36033333  0.08453333  0.00000000
C        C    0.86500000  0.97300000  0.24880000  0.00000000
C        C    0.63966667  0.44133333  0.08453333  0.00000000
C        C    0.55866667  0.19833333  0.08453333  0.00000000
C        C    0.36033333  0.55866667  0.91546667  0.00000000
C        C    0.02700000  0.89200000  0.24880000  0.00000000
C        C    0.30633333  0.77466667  0.41786667  0.00000000
C        C    0.89200000  0.86500000  0.75120000  0.00000000
C        C    0.69366667  0.22533333  0.58213333  0.00000000
C        C    0.19833333  0.63966667  0.91546667  0.00000000
C        C    0.22533333  0.53166667  0.41786667  0.00000000
H        H    0.46763333  0.71156667  0.41896667  0.00000000
H        H    0.42273333  0.80096667  0.91436667  0.00000000
H        H    0.13430000  0.04490000  0.75230000  0.00000000
H        H    0.53236667  0.28843333  0.58103333  0.00000000
H        H    0.75606667  0.46763333  0.58103333  0.00000000
H        H    0.95510000  0.08940000  0.75230000  0.00000000
H        H    0.08940000  0.13430000  0.24770000  0.00000000
H        H    0.80096667  0.37823333  0.08563333  0.00000000
H        H    0.86570000  0.95510000  0.24770000  0.00000000
H        H    0.62176667  0.42273333  0.08563333  0.00000000
H        H    0.57726667  0.19903333  0.08563333  0.00000000
H        H    0.37823333  0.57726667  0.91436667  0.00000000
H        H    0.04490000  0.91060000  0.24770000  0.00000000
H        H    0.28843333  0.75606667  0.41896667  0.00000000
H        H    0.91060000  0.86570000  0.75230000  0.00000000
H        H    0.71156667  0.24393333  0.58103333  0.00000000
H        H    0.19903333  0.62176667  0.91436667  0.00000000
H        H    0.24393333  0.53236667  0.41896667  0.00000000
C        C    0.38933333  0.66666667  0.41596667  0.00000000
C        C    0.38933333  0.72266667  0.91736667  0.00000000
C        C    0.05600000  0.00000000  0.74930000  0.00000000
C        C    0.61066667  0.33333333  0.58403333  0.00000000
C        C    0.72266667  0.38933333  0.58403333  0.00000000
C        C    0.00000000  0.05600000  0.74930000  0.00000000
C        C    0.05600000  0.05600000  0.25070000  0.00000000
C        C    0.72266667  0.33333333  0.08263333  0.00000000
C        C    0.94400000  0.00000000  0.25070000  0.00000000
C        C    0.66666667  0.38933333  0.08263333  0.00000000
C        C    0.61066667  0.27733333  0.08263333  0.00000000
C        C    0.33333333  0.61066667  0.91736667  0.00000000
C        C    0.00000000  0.94400000  0.25070000  0.00000000
C        C    0.33333333  0.72266667  0.41596667  0.00000000
C        C    0.94400000  0.94400000  0.74930000  0.00000000
C        C    0.66666667  0.27733333  0.58403333  0.00000000
C        C    0.27733333  0.66666667  0.91736667  0.00000000
C        C    0.27733333  0.61066667  0.41596667  0.00000000
C        C    0.41233333  0.66666667  0.41596667  0.00000000
C        C    0.41233333  0.74566667  0.91736667  0.00000000
C        C    0.07900000  0.00000000  0.74930000  0.00000000
C        C    0.58766667  0.33333333  0.58403333  0.00000000
C        C    0.74566667  0.41233333  0.58403333  0.00000000
C        C    0.00000000  0.07900000  0.74930000  0.00000000
C        C    0.07900000  0.07900000  0.25070000  0.00000000
C        C    0.74566667  0.33333333  0.08263333  0.00000000
C        C    0.92100000  0.00000000  0.25070000  0.00000000
C        C    0.66666667  0.41233333  0.08263333  0.00000000
C        C    0.58766667  0.25433333  0.08263333  0.00000000
C        C    0.33333333  0.58766667  0.91736667  0.00000000
C        C    0.00000000  0.92100000  0.25070000  0.00000000
C        C    0.33333333  0.74566667  0.41596667  0.00000000
C        C    0.92100000  0.92100000  0.74930000  0.00000000
C        C    0.66666667  0.25433333  0.58403333  0.00000000
C        C    0.25433333  0.66666667  0.91736667  0.00000000
C        C    0.25433333  0.58766667  0.41596667  0.00000000
C        C    0.52533333  0.66666667  0.41636667  0.00000000
C        C    0.52533333  0.85866667  0.91696667  0.00000000
C        C    0.19200000  0.00000000  0.74970000  0.00000000
C        C    0.47466667  0.33333333  0.58363333  0.00000000
C        C    0.85866667  0.52533333  0.58363333  0.00000000
C        C    0.00000000  0.19200000  0.74970000  0.00000000
C        C    0.19200000  0.19200000  0.25030000  0.00000000
C        C    0.85866667  0.33333333  0.08303333  0.00000000
C        C    0.80800000  0.00000000  0.25030000  0.00000000
C        C    0.66666667  0.52533333  0.08303333  0.00000000
C        C    0.47466667  0.14133333  0.08303333  0.00000000
C        C    0.33333333  0.47466667  0.91696667  0.00000000
C        C    0.00000000  0.80800000  0.25030000  0.00000000
C        C    0.33333333  0.85866667  0.41636667  0.00000000
C        C    0.80800000  0.80800000  0.74970000  0.00000000
C        C    0.66666667  0.14133333  0.58363333  0.00000000
C        C    0.14133333  0.66666667  0.91696667  0.00000000
C        C    0.14133333  0.47466667  0.41636667  0.00000000
C        C    0.51033333  0.34266667  0.46866667  0.00000000
C        C    0.83433333  0.84366667  0.86466667  0.00000000
C        C    0.17700000  0.67600000  0.80200000  0.00000000
C        C    0.48966667  0.65733333  0.53133333  0.00000000
C        C    0.16766667  0.51033333  0.53133333  0.00000000
C        C    0.32400000  0.50100000  0.80200000  0.00000000
C        C    0.50100000  0.17700000  0.19800000  0.00000000
C        C    0.84366667  0.00933333  0.13533333  0.00000000
C        C    0.82300000  0.32400000  0.19800000  0.00000000
C        C    0.99066667  0.83433333  0.13533333  0.00000000
C        C    0.16566667  0.15633333  0.13533333  0.00000000
C        C    0.00933333  0.16566667  0.86466667  0.00000000
C        C    0.67600000  0.49900000  0.19800000  0.00000000
C        C    0.65733333  0.16766667  0.46866667  0.00000000
C        C    0.49900000  0.82300000  0.80200000  0.00000000
C        C    0.34266667  0.83233333  0.53133333  0.00000000
C        C    0.15633333  0.99066667  0.86466667  0.00000000
C        C    0.83233333  0.48966667  0.46866667  0.00000000
C        C    0.56433333  0.36466667  0.46776667  0.00000000
C        C    0.86633333  0.89766667  0.86556667  0.00000000
C        C    0.23100000  0.69800000  0.80110000  0.00000000
C        C    0.43566667  0.63533333  0.53223333  0.00000000
C        C    0.19966667  0.56433333  0.53223333  0.00000000
C        C    0.30200000  0.53300000  0.80110000  0.00000000
C        C    0.53300000  0.23100000  0.19890000  0.00000000
C        C    0.89766667  0.03133333  0.13443333  0.00000000
C        C    0.76900000  0.30200000  0.19890000  0.00000000
C        C    0.96866667  0.86633333  0.13443333  0.00000000
C        C    0.13366667  0.10233333  0.13443333  0.00000000
C        C    0.03133333  0.13366667  0.86556667  0.00000000
C        C    0.69800000  0.46700000  0.19890000  0.00000000
C        C    0.63533333  0.19966667  0.46776667  0.00000000
C        C    0.46700000  0.76900000  0.80110000  0.00000000
C        C    0.36466667  0.80033333  0.53223333  0.00000000
C        C    0.10233333  0.96866667  0.86556667  0.00000000
C        C    0.80033333  0.43566667  0.46776667  0.00000000
H        H    0.58443333  0.38236667  0.46766667  0.00000000
H        H    0.86873333  0.91776667  0.86566667  0.00000000
H        H    0.25110000  0.71570000  0.80100000  0.00000000
H        H    0.41556667  0.61763333  0.53233333  0.00000000
H        H    0.20206667  0.58443333  0.53233333  0.00000000
H        H    0.28430000  0.53540000  0.80100000  0.00000000
H        H    0.53540000  0.25110000  0.19900000  0.00000000
H        H    0.91776667  0.04903333  0.13433333  0.00000000
H        H    0.74890000  0.28430000  0.19900000  0.00000000
H        H    0.95096667  0.86873333  0.13433333  0.00000000
H        H    0.13126667  0.08223333  0.13433333  0.00000000
H        H    0.04903333  0.13126667  0.86566667  0.00000000
H        H    0.71570000  0.46460000  0.19900000  0.00000000
H        H    0.61763333  0.20206667  0.46766667  0.00000000
H        H    0.46460000  0.74890000  0.80100000  0.00000000
H        H    0.38236667  0.79793333  0.53233333  0.00000000
H        H    0.08223333  0.95096667  0.86566667  0.00000000
H        H    0.79793333  0.41556667  0.46766667  0.00000000
C        C    0.53933333  0.36866667  0.46856667  0.00000000
C        C    0.83733333  0.87266667  0.86476667  0.00000000
C        C    0.20600000  0.70200000  0.80190000  0.00000000
C        C    0.46066667  0.63133333  0.53143333  0.00000000
C        C    0.17066667  0.53933333  0.53143333  0.00000000
C        C    0.29800000  0.50400000  0.80190000  0.00000000
C        C    0.50400000  0.20600000  0.19810000  0.00000000
C        C    0.87266667  0.03533333  0.13523333  0.00000000
C        C    0.79400000  0.29800000  0.19810000  0.00000000
C        C    0.96466667  0.83733333  0.13523333  0.00000000
C        C    0.16266667  0.12733333  0.13523333  0.00000000
C        C    0.03533333  0.16266667  0.86476667  0.00000000
C        C    0.70200000  0.49600000  0.19810000  0.00000000
C        C    0.63133333  0.17066667  0.46856667  0.00000000
C        C    0.49600000  0.79400000  0.80190000  0.00000000
C        C    0.36866667  0.82933333  0.53143333  0.00000000
C        C    0.12733333  0.96466667  0.86476667  0.00000000
C        C    0.82933333  0.46066667  0.46856667  0.00000000
H        H    0.54173333  0.38796667  0.46906667  0.00000000
H        H    0.82043333  0.87506667  0.86426667  0.00000000
H        H    0.20840000  0.72130000  0.80240000  0.00000000
H        H    0.45826667  0.61203333  0.53093333  0.00000000
H        H    0.15376667  0.54173333  0.53093333  0.00000000
H        H    0.27870000  0.48710000  0.80240000  0.00000000
H        H    0.48710000  0.20840000  0.19760000  0.00000000
H        H    0.87506667  0.05463333  0.13573333  0.00000000
H        H    0.79160000  0.27870000  0.19760000  0.00000000
H        H    0.94536667  0.82043333  0.13573333  0.00000000
H        H    0.17956667  0.12493333  0.13573333  0.00000000
H        H    0.05463333  0.17956667  0.86426667  0.00000000
H        H    0.72130000  0.51290000  0.19760000  0.00000000
H        H    0.61203333  0.15376667  0.46906667  0.00000000
H        H    0.51290000  0.79160000  0.80240000  0.00000000
H        H    0.38796667  0.84623333  0.53093333  0.00000000
H        H    0.12493333  0.94536667  0.86426667  0.00000000
H        H    0.84623333  0.45826667  0.46906667  0.00000000
C        C    0.63833333  0.33266667  0.46526667  0.00000000
C        C    0.97233333  0.97166667  0.86806667  0.00000000
C        C    0.30500000  0.66600000  0.79860000  0.00000000
C        C    0.36166667  0.66733333  0.53473333  0.00000000
C        C    0.30566667  0.63833333  0.53473333  0.00000000
C        C    0.33400000  0.63900000  0.79860000  0.00000000
C        C    0.63900000  0.30500000  0.20140000  0.00000000
C        C    0.97166667  0.99933333  0.13193333  0.00000000
C        C    0.69500000  0.33400000  0.20140000  0.00000000
C        C    0.00066667  0.97233333  0.13193333  0.00000000
C        C    0.02766667  0.02833333  0.13193333  0.00000000
C        C    0.99933333  0.02766667  0.86806667  0.00000000
C        C    0.66600000  0.36100000  0.20140000  0.00000000
C        C    0.66733333  0.30566667  0.46526667  0.00000000
C        C    0.36100000  0.69500000  0.79860000  0.00000000
C        C    0.33266667  0.69433333  0.53473333  0.00000000
C        C    0.02833333  0.00066667  0.86806667  0.00000000
C        C    0.69433333  0.36166667  0.46526667  0.00000000
C        C    0.63933333  0.30566667  0.46526667  0.00000000
C        C    0.00033333  0.97266667  0.86806667  0.00000000
C        C    0.30600000  0.63900000  0.79860000  0.00000000
C        C    0.36066667  0.69433333  0.53473333  0.00000000
C        C    0.33366667  0.63933333  0.53473333  0.00000000
C        C    0.36100000  0.66700000  0.79860000  0.00000000
C        C    0.66700000  0.30600000  0.20140000  0.00000000
C        C    0.97266667  0.97233333  0.13193333  0.00000000
C        C    0.69400000  0.36100000  0.20140000  0.00000000
C        C    0.02766667  0.00033333  0.13193333  0.00000000
C        C    0.99966667  0.02733333  0.13193333  0.00000000
C        C    0.97233333  0.99966667  0.86806667  0.00000000
C        C    0.63900000  0.33300000  0.20140000  0.00000000
C        C    0.69433333  0.33366667  0.46526667  0.00000000
C        C    0.33300000  0.69400000  0.79860000  0.00000000
C        C    0.30566667  0.66633333  0.53473333  0.00000000
C        C    0.02733333  0.02766667  0.86806667  0.00000000
C        C    0.66633333  0.36066667  0.46526667  0.00000000
H        H    0.62083333  0.28656667  0.46526667  0.00000000
H        H    0.00093333  0.95416667  0.86806667  0.00000000
H        H    0.28750000  0.61990000  0.79860000  0.00000000
H        H    0.37916667  0.71343333  0.53473333  0.00000000
H        H    0.33426667  0.62083333  0.53473333  0.00000000
H        H    0.38010000  0.66760000  0.79860000  0.00000000
H        H    0.66760000  0.28750000  0.20140000  0.00000000
H        H    0.95416667  0.95323333  0.13193333  0.00000000
H        H    0.71250000  0.38010000  0.20140000  0.00000000
H        H    0.04676667  0.00093333  0.13193333  0.00000000
H        H    0.99906667  0.04583333  0.13193333  0.00000000
H        H    0.95323333  0.99906667  0.86806667  0.00000000
H        H    0.61990000  0.33240000  0.20140000  0.00000000
H        H    0.71343333  0.33426667  0.46526667  0.00000000
H        H    0.33240000  0.71250000  0.79860000  0.00000000
H        H    0.28656667  0.66573333  0.53473333  0.00000000
H        H    0.04583333  0.04676667  0.86806667  0.00000000
H        H    0.66573333  0.37916667  0.46526667  0.00000000
C        C    0.50633333  0.31366667  0.46796667  0.00000000
C        C    0.85933333  0.83966667  0.86536667  0.00000000
C        C    0.17300000  0.64700000  0.80130000  0.00000000
C        C    0.49366667  0.68633333  0.53203333  0.00000000
C        C    0.19266667  0.50633333  0.53203333  0.00000000
C        C    0.35300000  0.52600000  0.80130000  0.00000000
C        C    0.52600000  0.17300000  0.19870000  0.00000000
C        C    0.83966667  0.98033333  0.13463333  0.00000000
C        C    0.82700000  0.35300000  0.19870000  0.00000000
C        C    0.01966667  0.85933333  0.13463333  0.00000000
C        C    0.14066667  0.16033333  0.13463333  0.00000000
C        C    0.98033333  0.14066667  0.86536667  0.00000000
C        C    0.64700000  0.47400000  0.19870000  0.00000000
C        C    0.68633333  0.19266667  0.46796667  0.00000000
C        C    0.47400000  0.82700000  0.80130000  0.00000000
C        C    0.31366667  0.80733333  0.53203333  0.00000000
C        C    0.16033333  0.01966667  0.86536667  0.00000000
C        C    0.80733333  0.49366667  0.46796667  0.00000000
H        H    0.48683333  0.29586667  0.46806667  0.00000000
H        H    0.85763333  0.82016667  0.86526667  0.00000000
H        H    0.15350000  0.62920000  0.80140000  0.00000000
H        H    0.51316667  0.70413333  0.53193333  0.00000000
H        H    0.19096667  0.48683333  0.53193333  0.00000000
H        H    0.37080000  0.52430000  0.80140000  0.00000000
H        H    0.52430000  0.15350000  0.19860000  0.00000000
H        H    0.82016667  0.96253333  0.13473333  0.00000000
H        H    0.84650000  0.37080000  0.19860000  0.00000000
H        H    0.03746667  0.85763333  0.13473333  0.00000000
H        H    0.14236667  0.17983333  0.13473333  0.00000000
H        H    0.96253333  0.14236667  0.86526667  0.00000000
H        H    0.62920000  0.47570000  0.19860000  0.00000000
H        H    0.70413333  0.19096667  0.46806667  0.00000000
H        H    0.47570000  0.84650000  0.80140000  0.00000000
H        H    0.29586667  0.80903333  0.53193333  0.00000000
H        H    0.17983333  0.03746667  0.86526667  0.00000000
H        H    0.80903333  0.51316667  0.46806667  0.00000000
C        C    0.56033333  0.33566667  0.46706667  0.00000000
C        C    0.89133333  0.89366667  0.86626667  0.00000000
C        C    0.22700000  0.66900000  0.80040000  0.00000000
C        C    0.43966667  0.66433333  0.53293333  0.00000000
C        C    0.22466667  0.56033333  0.53293333  0.00000000
C        C    0.33100000  0.55800000  0.80040000  0.00000000
C        C    0.55800000  0.22700000  0.19960000  0.00000000
C        C    0.89366667  0.00233333  0.13373333  0.00000000
C        C    0.77300000  0.33100000  0.19960000  0.00000000
C        C    0.99766667  0.89133333  0.13373333  0.00000000
C        C    0.10866667  0.10633333  0.13373333  0.00000000
C        C    0.00233333  0.10866667  0.86626667  0.00000000
C        C    0.66900000  0.44200000  0.19960000  0.00000000
C        C    0.66433333  0.22466667  0.46706667  0.00000000
C        C    0.44200000  0.77300000  0.80040000  0.00000000
C        C    0.33566667  0.77533333  0.53293333  0.00000000
C        C    0.10633333  0.99766667  0.86626667  0.00000000
C        C    0.77533333  0.43966667  0.46706667  0.00000000
C        C    0.53133333  0.30966667  0.46716667  0.00000000
C        C    0.88833333  0.86466667  0.86616667  0.00000000
C        C    0.19800000  0.64300000  0.80050000  0.00000000
C        C    0.46866667  0.69033333  0.53283333  0.00000000
C        C    0.22166667  0.53133333  0.53283333  0.00000000
C        C    0.35700000  0.55500000  0.80050000  0.00000000
C        C    0.55500000  0.19800000  0.19950000  0.00000000
C        C    0.86466667  0.97633333  0.13383333  0.00000000
C        C    0.80200000  0.35700000  0.19950000  0.00000000
C        C    0.02366667  0.88833333  0.13383333  0.00000000
C        C    0.11166667  0.13533333  0.13383333  0.00000000
C        C    0.97633333  0.11166667  0.86616667  0.00000000
C        C    0.64300000  0.44500000  0.19950000  0.00000000
C        C    0.69033333  0.22166667  0.46716667  0.00000000
C        C    0.44500000  0.80200000  0.80050000  0.00000000
C        C    0.30966667  0.77833333  0.53283333  0.00000000
C        C    0.13533333  0.02366667  0.86616667  0.00000000
C        C    0.77833333  0.46866667  0.46716667  0.00000000
H        H    0.52973333  0.29036667  0.46676667  0.00000000
H        H    0.90603333  0.86306667  0.86656667  0.00000000
H        H    0.19640000  0.62370000  0.80010000  0.00000000
H        H    0.47026667  0.70963333  0.53323333  0.00000000
H        H    0.23936667  0.52973333  0.53323333  0.00000000
H        H    0.37630000  0.57270000  0.80010000  0.00000000
H        H    0.57270000  0.19640000  0.19990000  0.00000000
H        H    0.86306667  0.95703333  0.13343333  0.00000000
H        H    0.80360000  0.37630000  0.19990000  0.00000000
H        H    0.04296667  0.90603333  0.13343333  0.00000000
H        H    0.09396667  0.13693333  0.13343333  0.00000000
H        H    0.95703333  0.09396667  0.86656667  0.00000000
H        H    0.62370000  0.42730000  0.19990000  0.00000000
H        H    0.70963333  0.23936667  0.46676667  0.00000000
H        H    0.42730000  0.80360000  0.80010000  0.00000000
H        H    0.29036667  0.76063333  0.53323333  0.00000000
H        H    0.13693333  0.04296667  0.86656667  0.00000000
H        H    0.76063333  0.47026667  0.46676667  0.00000000
C        C    0.61133333  0.33266667  0.46566667  0.00000000
C        C    0.94533333  0.94466667  0.86766667  0.00000000
C        C    0.27800000  0.66600000  0.79900000  0.00000000
C        C    0.38866667  0.66733333  0.53433333  0.00000000
C        C    0.27866667  0.61133333  0.53433333  0.00000000
C        C    0.33400000  0.61200000  0.79900000  0.00000000
C        C    0.61200000  0.27800000  0.20100000  0.00000000
C        C    0.94466667  0.99933333  0.13233333  0.00000000
C        C    0.72200000  0.33400000  0.20100000  0.00000000
C        C    0.00066667  0.94533333  0.13233333  0.00000000
C        C    0.05466667  0.05533333  0.13233333  0.00000000
C        C    0.99933333  0.05466667  0.86766667  0.00000000
C        C    0.66600000  0.38800000  0.20100000  0.00000000
C        C    0.66733333  0.27866667  0.46566667  0.00000000
C        C    0.38800000  0.72200000  0.79900000  0.00000000
C        C    0.33266667  0.72133333  0.53433333  0.00000000
C        C    0.05533333  0.00066667  0.86766667  0.00000000
C        C    0.72133333  0.38866667  0.46566667  0.00000000
C        C    0.58833333  0.33366667  0.46626667  0.00000000
C        C    0.92133333  0.92166667  0.86706667  0.00000000
C        C    0.25500000  0.66700000  0.79960000  0.00000000
C        C    0.41166667  0.66633333  0.53373333  0.00000000
C        C    0.25466667  0.58833333  0.53373333  0.00000000
C        C    0.33300000  0.58800000  0.79960000  0.00000000
C        C    0.58800000  0.25500000  0.20040000  0.00000000
C        C    0.92166667  0.00033333  0.13293333  0.00000000
C        C    0.74500000  0.33300000  0.20040000  0.00000000
C        C    0.99966667  0.92133333  0.13293333  0.00000000
C        C    0.07866667  0.07833333  0.13293333  0.00000000
C        C    0.00033333  0.07866667  0.86706667  0.00000000
C        C    0.66700000  0.41200000  0.20040000  0.00000000
C        C    0.66633333  0.25466667  0.46626667  0.00000000
C        C    0.41200000  0.74500000  0.79960000  0.00000000
C        C    0.33366667  0.74533333  0.53373333  0.00000000
C        C    0.07833333  0.99966667  0.86706667  0.00000000
C        C    0.74533333  0.41166667  0.46626667  0.00000000
C        C    0.02733333  0.02666667  0.36696667  0.00000000
C        C    0.66733333  0.36066667  0.96636667  0.00000000
C        C    0.69400000  0.36000000  0.70030000  0.00000000
C        C    0.97266667  0.97333333  0.63303333  0.00000000
C        C    0.00066667  0.02733333  0.63303333  0.00000000
C        C    0.64000000  0.33400000  0.70030000  0.00000000
C        C    0.33400000  0.69400000  0.29970000  0.00000000
C        C    0.36066667  0.69333333  0.03363333  0.00000000
C        C    0.30600000  0.64000000  0.29970000  0.00000000
C        C    0.30666667  0.66733333  0.03363333  0.00000000
C        C    0.33266667  0.63933333  0.03363333  0.00000000
C        C    0.69333333  0.33266667  0.96636667  0.00000000
C        C    0.36000000  0.66600000  0.29970000  0.00000000
C        C    0.97333333  0.00066667  0.36696667  0.00000000
C        C    0.66600000  0.30600000  0.70030000  0.00000000
C        C    0.02666667  0.99933333  0.63303333  0.00000000
C        C    0.63933333  0.30666667  0.96636667  0.00000000
C        C    0.99933333  0.97266667  0.36696667  0.00000000
C        C    0.00033333  0.02766667  0.36696667  0.00000000
C        C    0.63933333  0.33366667  0.96636667  0.00000000
C        C    0.66700000  0.36100000  0.70030000  0.00000000
C        C    0.99966667  0.97233333  0.63303333  0.00000000
C        C    0.97266667  0.00033333  0.63303333  0.00000000
C        C    0.63900000  0.30600000  0.70030000  0.00000000
C        C    0.30600000  0.66700000  0.29970000  0.00000000
C        C    0.33366667  0.69433333  0.03363333  0.00000000
C        C    0.33300000  0.63900000  0.29970000  0.00000000
C        C    0.30566667  0.63933333  0.03363333  0.00000000
C        C    0.36066667  0.66633333  0.03363333  0.00000000
C        C    0.69433333  0.36066667  0.96636667  0.00000000
C        C    0.36100000  0.69400000  0.29970000  0.00000000
C        C    0.97233333  0.97266667  0.36696667  0.00000000
C        C    0.69400000  0.33300000  0.70030000  0.00000000
C        C    0.02766667  0.02733333  0.63303333  0.00000000
C        C    0.66633333  0.30566667  0.96636667  0.00000000
C        C    0.02733333  0.99966667  0.36696667  0.00000000
H        H    0.00143333  0.04696667  0.36706667  0.00000000
H        H    0.62113333  0.33476667  0.96626667  0.00000000
H        H    0.66810000  0.38030000  0.70040000  0.00000000
H        H    0.99856667  0.95303333  0.63293333  0.00000000
H        H    0.95446667  0.00143333  0.63293333  0.00000000
H        H    0.61970000  0.28780000  0.70040000  0.00000000
H        H    0.28780000  0.66810000  0.29960000  0.00000000
H        H    0.33476667  0.71363333  0.03373333  0.00000000
H        H    0.33190000  0.61970000  0.29960000  0.00000000
H        H    0.28636667  0.62113333  0.03373333  0.00000000
H        H    0.37886667  0.66523333  0.03373333  0.00000000
H        H    0.71363333  0.37886667  0.96626667  0.00000000
H        H    0.38030000  0.71220000  0.29960000  0.00000000
H        H    0.95303333  0.95446667  0.36706667  0.00000000
H        H    0.71220000  0.33190000  0.70040000  0.00000000
H        H    0.04696667  0.04553333  0.63293333  0.00000000
H        H    0.66523333  0.28636667  0.96626667  0.00000000
H        H    0.04553333  0.99856667  0.36706667  0.00000000
C        C    0.10533333  0.10766667  0.36586667  0.00000000
C        C    0.66433333  0.43866667  0.96746667  0.00000000
C        C    0.77200000  0.44100000  0.69920000  0.00000000
C        C    0.89466667  0.89233333  0.63413333  0.00000000
C        C    0.99766667  0.10533333  0.63413333  0.00000000
C        C    0.55900000  0.33100000  0.69920000  0.00000000
C        C    0.33100000  0.77200000  0.30080000  0.00000000
C        C    0.43866667  0.77433333  0.03253333  0.00000000
C        C    0.22800000  0.55900000  0.30080000  0.00000000
C        C    0.22566667  0.66433333  0.03253333  0.00000000
C        C    0.33566667  0.56133333  0.03253333  0.00000000
C        C    0.77433333  0.33566667  0.96746667  0.00000000
C        C    0.44100000  0.66900000  0.30080000  0.00000000
C        C    0.89233333  0.99766667  0.36586667  0.00000000
C        C    0.66900000  0.22800000  0.69920000  0.00000000
C        C    0.10766667  0.00233333  0.63413333  0.00000000
C        C    0.56133333  0.22566667  0.96746667  0.00000000
C        C    0.00233333  0.89466667  0.36586667  0.00000000
C        C    0.10233333  0.13366667  0.36546667  0.00000000
C        C    0.63533333  0.43566667  0.96786667  0.00000000
C        C    0.76900000  0.46700000  0.69880000  0.00000000
C        C    0.89766667  0.86633333  0.63453333  0.00000000
C        C    0.96866667  0.10233333  0.63453333  0.00000000
C        C    0.53300000  0.30200000  0.69880000  0.00000000
C        C    0.30200000  0.76900000  0.30120000  0.00000000
C        C    0.43566667  0.80033333  0.03213333  0.00000000
C        C    0.23100000  0.53300000  0.30120000  0.00000000
C        C    0.19966667  0.63533333  0.03213333  0.00000000
C        C    0.36466667  0.56433333  0.03213333  0.00000000
C        C    0.80033333  0.36466667  0.96786667  0.00000000
C        C    0.46700000  0.69800000  0.30120000  0.00000000
C        C    0.86633333  0.96866667  0.36546667  0.00000000
C        C    0.69800000  0.23100000  0.69880000  0.00000000
C        C    0.13366667  0.03133333  0.63453333  0.00000000
C        C    0.56433333  0.19966667  0.96786667  0.00000000
C        C    0.03133333  0.89766667  0.36546667  0.00000000
H        H    0.08313333  0.13146667  0.36556667  0.00000000
H        H    0.61833333  0.41646667  0.96776667  0.00000000
H        H    0.74980000  0.46480000  0.69890000  0.00000000
H        H    0.91686667  0.86853333  0.63443333  0.00000000
H        H    0.95166667  0.08313333  0.63443333  0.00000000
H        H    0.53520000  0.28500000  0.69890000  0.00000000
H        H    0.28500000  0.74980000  0.30110000  0.00000000
H        H    0.41646667  0.79813333  0.03223333  0.00000000
H        H    0.25020000  0.53520000  0.30110000  0.00000000
H        H    0.20186667  0.61833333  0.03223333  0.00000000
H        H    0.38166667  0.58353333  0.03223333  0.00000000
H        H    0.79813333  0.38166667  0.96776667  0.00000000
H        H    0.46480000  0.71500000  0.30110000  0.00000000
H        H    0.86853333  0.95166667  0.36556667  0.00000000
H        H    0.71500000  0.25020000  0.69890000  0.00000000
H        H    0.13146667  0.04833333  0.63443333  0.00000000
H        H    0.58353333  0.20186667  0.96776667  0.00000000
H        H    0.04833333  0.91686667  0.36556667  0.00000000
C        C    0.12833333  0.16266667  0.36486667  0.00000000
C        C    0.63233333  0.46166667  0.96846667  0.00000000
C        C    0.79500000  0.49600000  0.69820000  0.00000000
C        C    0.87166667  0.83733333  0.63513333  0.00000000
C        C    0.96566667  0.12833333  0.63513333  0.00000000
C        C    0.50400000  0.29900000  0.69820000  0.00000000
C        C    0.29900000  0.79500000  0.30180000  0.00000000
C        C    0.46166667  0.82933333  0.03153333  0.00000000
C        C    0.20500000  0.50400000  0.30180000  0.00000000
C        C    0.17066667  0.63233333  0.03153333  0.00000000
C        C    0.36766667  0.53833333  0.03153333  0.00000000
C        C    0.82933333  0.36766667  0.96846667  0.00000000
C        C    0.49600000  0.70100000  0.30180000  0.00000000
C        C    0.83733333  0.96566667  0.36486667  0.00000000
C        C    0.70100000  0.20500000  0.69820000  0.00000000
C        C    0.16266667  0.03433333  0.63513333  0.00000000
C        C    0.53833333  0.17066667  0.96846667  0.00000000
C        C    0.03433333  0.87166667  0.36486667  0.00000000
H        H    0.12583333  0.17986667  0.36456667  0.00000000
H        H    0.61263333  0.45916667  0.96876667  0.00000000
H        H    0.79250000  0.51320000  0.69790000  0.00000000
H        H    0.87416667  0.82013333  0.63543333  0.00000000
H        H    0.94596667  0.12583333  0.63543333  0.00000000
H        H    0.48680000  0.27930000  0.69790000  0.00000000
H        H    0.27930000  0.79250000  0.30210000  0.00000000
H        H    0.45916667  0.84653333  0.03123333  0.00000000
H        H    0.20750000  0.48680000  0.30210000  0.00000000
H        H    0.15346667  0.61263333  0.03123333  0.00000000
H        H    0.38736667  0.54083333  0.03123333  0.00000000
H        H    0.84653333  0.38736667  0.96876667  0.00000000
H        H    0.51320000  0.72070000  0.30210000  0.00000000
H        H    0.82013333  0.94596667  0.36456667  0.00000000
H        H    0.72070000  0.20750000  0.69790000  0.00000000
H        H    0.17986667  0.05403333  0.63543333  0.00000000
H        H    0.54083333  0.15346667  0.96876667  0.00000000
H        H    0.05403333  0.87416667  0.36456667  0.00000000
C        C    0.15833333  0.16666667  0.36466667  0.00000000
C        C    0.65833333  0.49166667  0.96866667  0.00000000
C        C    0.82500000  0.50000000  0.69800000  0.00000000
C        C    0.84166667  0.83333333  0.63533333  0.00000000
C        C    0.99166667  0.15833333  0.63533333  0.00000000
C        C    0.50000000  0.32500000  0.69800000  0.00000000
C        C    0.32500000  0.82500000  0.30200000  0.00000000
C        C    0.49166667  0.83333333  0.03133333  0.00000000
C        C    0.17500000  0.50000000  0.30200000  0.00000000
C        C    0.16666667  0.65833333  0.03133333  0.00000000
C        C    0.34166667  0.50833333  0.03133333  0.00000000
C        C    0.83333333  0.34166667  0.96866667  0.00000000
C        C    0.50000000  0.67500000  0.30200000  0.00000000
C        C    0.83333333  0.99166667  0.36466667  0.00000000
C        C    0.67500000  0.17500000  0.69800000  0.00000000
C        C    0.16666667  0.00833333  0.63533333  0.00000000
C        C    0.50833333  0.16666667  0.96866667  0.00000000
C        C    0.00833333  0.84166667  0.36466667  0.00000000
C        C    0.16133333  0.14066667  0.36506667  0.00000000
C        C    0.68733333  0.49466667  0.96826667  0.00000000
C        C    0.82800000  0.47400000  0.69840000  0.00000000
C        C    0.83866667  0.85933333  0.63493333  0.00000000
C        C    0.02066667  0.16133333  0.63493333  0.00000000
C        C    0.52600000  0.35400000  0.69840000  0.00000000
C        C    0.35400000  0.82800000  0.30160000  0.00000000
C        C    0.49466667  0.80733333  0.03173333  0.00000000
C        C    0.17200000  0.52600000  0.30160000  0.00000000
C        C    0.19266667  0.68733333  0.03173333  0.00000000
C        C    0.31266667  0.50533333  0.03173333  0.00000000
C        C    0.80733333  0.31266667  0.96826667  0.00000000
C        C    0.47400000  0.64600000  0.30160000  0.00000000
C        C    0.85933333  0.02066667  0.36506667  0.00000000
C        C    0.64600000  0.17200000  0.69840000  0.00000000
C        C    0.14066667  0.97933333  0.63493333  0.00000000
C        C    0.50533333  0.19266667  0.96826667  0.00000000
C        C    0.97933333  0.83866667  0.36506667  0.00000000
H        H    0.18073333  0.14256667  0.36496667  0.00000000
H        H    0.70483333  0.51406667  0.96836667  0.00000000
H        H    0.84740000  0.47590000  0.69830000  0.00000000
H        H    0.81926667  0.85743333  0.63503333  0.00000000
H        H    0.03816667  0.18073333  0.63503333  0.00000000
H        H    0.52410000  0.37150000  0.69830000  0.00000000
H        H    0.37150000  0.84740000  0.30170000  0.00000000
H        H    0.51406667  0.80923333  0.03163333  0.00000000
H        H    0.15260000  0.52410000  0.30170000  0.00000000
H        H    0.19076667  0.70483333  0.03163333  0.00000000
H        H    0.29516667  0.48593333  0.03163333  0.00000000
H        H    0.80923333  0.29516667  0.96836667  0.00000000
H        H    0.47590000  0.62850000  0.30170000  0.00000000
H        H    0.85743333  0.03816667  0.36496667  0.00000000
H        H    0.62850000  0.15260000  0.69830000  0.00000000
H        H    0.14256667  0.96183333  0.63503333  0.00000000
H        H    0.48593333  0.19076667  0.96836667  0.00000000
H        H    0.96183333  0.81926667  0.36496667  0.00000000
C        C    0.13533333  0.11166667  0.36566667  0.00000000
C        C    0.69033333  0.46866667  0.96766667  0.00000000
C        C    0.80200000  0.44500000  0.69900000  0.00000000
C        C    0.86466667  0.88833333  0.63433333  0.00000000
C        C    0.02366667  0.13533333  0.63433333  0.00000000
C        C    0.55500000  0.35700000  0.69900000  0.00000000
C        C    0.35700000  0.80200000  0.30100000  0.00000000
C        C    0.46866667  0.77833333  0.03233333  0.00000000
C        C    0.19800000  0.55500000  0.30100000  0.00000000
C        C    0.22166667  0.69033333  0.03233333  0.00000000
C        C    0.30966667  0.53133333  0.03233333  0.00000000
C        C    0.77833333  0.30966667  0.96766667  0.00000000
C        C    0.44500000  0.64300000  0.30100000  0.00000000
C        C    0.88833333  0.02366667  0.36566667  0.00000000
C        C    0.64300000  0.19800000  0.69900000  0.00000000
C        C    0.11166667  0.97633333  0.63433333  0.00000000
C        C    0.53133333  0.22166667  0.96766667  0.00000000
C        C    0.97633333  0.86466667  0.36566667  0.00000000
H        H    0.13753333  0.09386667  0.36596667  0.00000000
H        H    0.71033333  0.47086667  0.96736667  0.00000000
H        H    0.80420000  0.42720000  0.69930000  0.00000000
H        H    0.86246667  0.90613333  0.63403333  0.00000000
H        H    0.04366667  0.13753333  0.63403333  0.00000000
H        H    0.57280000  0.37700000  0.69930000  0.00000000
H        H    0.37700000  0.80420000  0.30070000  0.00000000
H        H    0.47086667  0.76053333  0.03263333  0.00000000
H        H    0.19580000  0.57280000  0.30070000  0.00000000
H        H    0.23946667  0.71033333  0.03263333  0.00000000
H        H    0.28966667  0.52913333  0.03263333  0.00000000
H        H    0.76053333  0.28966667  0.96736667  0.00000000
H        H    0.42720000  0.62300000  0.30070000  0.00000000
H        H    0.90613333  0.04366667  0.36596667  0.00000000
H        H    0.62300000  0.19580000  0.69930000  0.00000000
H        H    0.09386667  0.95633333  0.63403333  0.00000000
H        H    0.52913333  0.23946667  0.96736667  0.00000000
H        H    0.95633333  0.86246667  0.36596667  0.00000000
C        C    0.05633333  0.05466667  0.36676667  0.00000000
C        C    0.66833333  0.38966667  0.96656667  0.00000000
C        C    0.72300000  0.38800000  0.70010000  0.00000000
C        C    0.94366667  0.94533333  0.63323333  0.00000000
C        C    0.00166667  0.05633333  0.63323333  0.00000000
C        C    0.61200000  0.33500000  0.70010000  0.00000000
C        C    0.33500000  0.72300000  0.29990000  0.00000000
C        C    0.38966667  0.72133333  0.03343333  0.00000000
C        C    0.27700000  0.61200000  0.29990000  0.00000000
C        C    0.27866667  0.66833333  0.03343333  0.00000000
C        C    0.33166667  0.61033333  0.03343333  0.00000000
C        C    0.72133333  0.33166667  0.96656667  0.00000000
C        C    0.38800000  0.66500000  0.29990000  0.00000000
C        C    0.94533333  0.00166667  0.36676667  0.00000000
C        C    0.66500000  0.27700000  0.70010000  0.00000000
C        C    0.05466667  0.99833333  0.63323333  0.00000000
C        C    0.61033333  0.27866667  0.96656667  0.00000000
C        C    0.99833333  0.94366667  0.36676667  0.00000000
C        C    0.07933333  0.07866667  0.36636667  0.00000000
C        C    0.66733333  0.41266667  0.96696667  0.00000000
C        C    0.74600000  0.41200000  0.69970000  0.00000000
C        C    0.92066667  0.92133333  0.63363333  0.00000000
C        C    0.00066667  0.07933333  0.63363333  0.00000000
C        C    0.58800000  0.33400000  0.69970000  0.00000000
C        C    0.33400000  0.74600000  0.30030000  0.00000000
C        C    0.41266667  0.74533333  0.03303333  0.00000000
C        C    0.25400000  0.58800000  0.30030000  0.00000000
C        C    0.25466667  0.66733333  0.03303333  0.00000000
C        C    0.33266667  0.58733333  0.03303333  0.00000000
C        C    0.74533333  0.33266667  0.96696667  0.00000000
C        C    0.41200000  0.66600000  0.30030000  0.00000000
C        C    0.92133333  0.00066667  0.36636667  0.00000000
C        C    0.66600000  0.25400000  0.69970000  0.00000000
C        C    0.07866667  0.99933333  0.63363333  0.00000000
C        C    0.58733333  0.25466667  0.96696667  0.00000000
C        C    0.99933333  0.92066667  0.36636667  0.00000000
C        C    0.51533333  0.48566667  0.44846667  0.00000000
C        C    0.69633333  0.84866667  0.88486667  0.00000000
C        C    0.18200000  0.81900000  0.78180000  0.00000000
C        C    0.48466667  0.51433333  0.55153333  0.00000000
C        C    0.02966667  0.51533333  0.55153333  0.00000000
C        C    0.18100000  0.36300000  0.78180000  0.00000000
C        C    0.36300000  0.18200000  0.21820000  0.00000000
C        C    0.84866667  0.15233333  0.11513333  0.00000000
C        C    0.81800000  0.18100000  0.21820000  0.00000000
C        C    0.84766667  0.69633333  0.11513333  0.00000000
C        C    0.30366667  0.15133333  0.11513333  0.00000000
C        C    0.15233333  0.30366667  0.88486667  0.00000000
C        C    0.81900000  0.63700000  0.21820000  0.00000000
C        C    0.51433333  0.02966667  0.44846667  0.00000000
C        C    0.63700000  0.81800000  0.78180000  0.00000000
C        C    0.48566667  0.97033333  0.55153333  0.00000000
C        C    0.15133333  0.84766667  0.88486667  0.00000000
C        C    0.97033333  0.48466667  0.44846667  0.00000000
H        H    0.53603333  0.49726667  0.44836667  0.00000000
H        H    0.70543333  0.86936667  0.88496667  0.00000000
H        H    0.20270000  0.83060000  0.78170000  0.00000000
H        H    0.46396667  0.50273333  0.55163333  0.00000000
H        H    0.03876667  0.53603333  0.55163333  0.00000000
H        H    0.16940000  0.37210000  0.78170000  0.00000000
H        H    0.37210000  0.20270000  0.21830000  0.00000000
H        H    0.86936667  0.16393333  0.11503333  0.00000000
H        H    0.79730000  0.16940000  0.21830000  0.00000000
H        H    0.83606667  0.70543333  0.11503333  0.00000000
H        H    0.29456667  0.13063333  0.11503333  0.00000000
H        H    0.16393333  0.29456667  0.88496667  0.00000000
H        H    0.83060000  0.62790000  0.21830000  0.00000000
H        H    0.50273333  0.03876667  0.44836667  0.00000000
H        H    0.62790000  0.79730000  0.78170000  0.00000000
H        H    0.49726667  0.96123333  0.55163333  0.00000000
H        H    0.13063333  0.83606667  0.88496667  0.00000000
H        H    0.96123333  0.46396667  0.44836667  0.00000000
C        C    0.50033333  0.46066667  0.45306667  0.00000000
C        C    0.70633333  0.83366667  0.88026667  0.00000000
C        C    0.16700000  0.79400000  0.78640000  0.00000000
C        C    0.49966667  0.53933333  0.54693333  0.00000000
C        C    0.03966667  0.50033333  0.54693333  0.00000000
C        C    0.20600000  0.37300000  0.78640000  0.00000000
C        C    0.37300000  0.16700000  0.21360000  0.00000000
C        C    0.83366667  0.12733333  0.11973333  0.00000000
C        C    0.83300000  0.20600000  0.21360000  0.00000000
C        C    0.87266667  0.70633333  0.11973333  0.00000000
C        C    0.29366667  0.16633333  0.11973333  0.00000000
C        C    0.12733333  0.29366667  0.88026667  0.00000000
C        C    0.79400000  0.62700000  0.21360000  0.00000000
C        C    0.53933333  0.03966667  0.45306667  0.00000000
C        C    0.62700000  0.83300000  0.78640000  0.00000000
C        C    0.46066667  0.96033333  0.54693333  0.00000000
C        C    0.16633333  0.87266667  0.88026667  0.00000000
C        C    0.96033333  0.49966667  0.45306667  0.00000000
H        H    0.51283333  0.45606667  0.45596667  0.00000000
H        H    0.72343333  0.84616667  0.87736667  0.00000000
H        H    0.17950000  0.78940000  0.78930000  0.00000000
H        H    0.48716667  0.54393333  0.54403333  0.00000000
H        H    0.05676667  0.51283333  0.54403333  0.00000000
H        H    0.21060000  0.39010000  0.78930000  0.00000000
H        H    0.39010000  0.17950000  0.21070000  0.00000000
H        H    0.84616667  0.12273333  0.12263333  0.00000000
H        H    0.82050000  0.21060000  0.21070000  0.00000000
H        H    0.87726667  0.72343333  0.12263333  0.00000000
H        H    0.27656667  0.15383333  0.12263333  0.00000000
H        H    0.12273333  0.27656667  0.87736667  0.00000000
H        H    0.78940000  0.60990000  0.21070000  0.00000000
H        H    0.54393333  0.05676667  0.45596667  0.00000000
H        H    0.60990000  0.82050000  0.78930000  0.00000000
H        H    0.45606667  0.94323333  0.54403333  0.00000000
H        H    0.15383333  0.87726667  0.87736667  0.00000000
H        H    0.94323333  0.48716667  0.45596667  0.00000000
C        C    0.46833333  0.44166667  0.45326667  0.00000000
C        C    0.69333333  0.80166667  0.88006667  0.00000000
C        C    0.13500000  0.77500000  0.78660000  0.00000000
C        C    0.53166667  0.55833333  0.54673333  0.00000000
C        C    0.02666667  0.46833333  0.54673333  0.00000000
C        C    0.22500000  0.36000000  0.78660000  0.00000000
C        C    0.36000000  0.13500000  0.21340000  0.00000000
C        C    0.80166667  0.10833333  0.11993333  0.00000000
C        C    0.86500000  0.22500000  0.21340000  0.00000000
C        C    0.89166667  0.69333333  0.11993333  0.00000000
C        C    0.30666667  0.19833333  0.11993333  0.00000000
C        C    0.10833333  0.30666667  0.88006667  0.00000000
C        C    0.77500000  0.64000000  0.21340000  0.00000000
C        C    0.55833333  0.02666667  0.45326667  0.00000000
C        C    0.64000000  0.86500000  0.78660000  0.00000000
C        C    0.44166667  0.97333333  0.54673333  0.00000000
C        C    0.19833333  0.89166667  0.88006667  0.00000000
C        C    0.97333333  0.53166667  0.45326667  0.00000000
C        C    0.45133333  0.44866667  0.44886667  0.00000000
C        C    0.66933333  0.78466667  0.88446667  0.00000000
C        C    0.11800000  0.78200000  0.78220000  0.00000000
C        C    0.54866667  0.55133333  0.55113333  0.00000000
C        C    0.00266667  0.45133333  0.55113333  0.00000000
C        C    0.21800000  0.33600000  0.78220000  0.00000000
C        C    0.33600000  0.11800000  0.21780000  0.00000000
C        C    0.78466667  0.11533333  0.11553333  0.00000000
C        C    0.88200000  0.21800000  0.21780000  0.00000000
C        C    0.88466667  0.66933333  0.11553333  0.00000000
C        C    0.33066667  0.21533333  0.11553333  0.00000000
C        C    0.11533333  0.33066667  0.88446667  0.00000000
C        C    0.78200000  0.66400000  0.21780000  0.00000000
C        C    0.55133333  0.00266667  0.44886667  0.00000000
C        C    0.66400000  0.88200000  0.78220000  0.00000000
C        C    0.44866667  0.99733333  0.55113333  0.00000000
C        C    0.21533333  0.88466667  0.88446667  0.00000000
C        C    0.99733333  0.54866667  0.44886667  0.00000000
H        H    0.42963333  0.43626667  0.44886667  0.00000000
H        H    0.66003333  0.76296667  0.88446667  0.00000000
H        H    0.09630000  0.76960000  0.78220000  0.00000000
H        H    0.57036667  0.56373333  0.55113333  0.00000000
H        H    0.99336667  0.42963333  0.55113333  0.00000000
H        H    0.23040000  0.32670000  0.78220000  0.00000000
H        H    0.32670000  0.09630000  0.21780000  0.00000000
H        H    0.76296667  0.10293333  0.11553333  0.00000000
H        H    0.90370000  0.23040000  0.21780000  0.00000000
H        H    0.89706667  0.66003333  0.11553333  0.00000000
H        H    0.33996667  0.23703333  0.11553333  0.00000000
H        H    0.10293333  0.33996667  0.88446667  0.00000000
H        H    0.76960000  0.67330000  0.21780000  0.00000000
H        H    0.56373333  0.99336667  0.44886667  0.00000000
H        H    0.67330000  0.90370000  0.78220000  0.00000000
H        H    0.43626667  0.00663333  0.55113333  0.00000000
H        H    0.23703333  0.89706667  0.88446667  0.00000000
H        H    0.00663333  0.57036667  0.44886667  0.00000000
C        C    0.46533333  0.47366667  0.44426667  0.00000000
C        C    0.65833333  0.79866667  0.88906667  0.00000000
C        C    0.13200000  0.80700000  0.77760000  0.00000000
C        C    0.53466667  0.52633333  0.55573333  0.00000000
C        C    0.99166667  0.46533333  0.55573333  0.00000000
C        C    0.19300000  0.32500000  0.77760000  0.00000000
C        C    0.32500000  0.13200000  0.22240000  0.00000000
C        C    0.79866667  0.14033333  0.11093333  0.00000000
C        C    0.86800000  0.19300000  0.22240000  0.00000000
C        C    0.85966667  0.65833333  0.11093333  0.00000000
C        C    0.34166667  0.20133333  0.11093333  0.00000000
C        C    0.14033333  0.34166667  0.88906667  0.00000000
C        C    0.80700000  0.67500000  0.22240000  0.00000000
C        C    0.52633333  0.99166667  0.44426667  0.00000000
C        C    0.67500000  0.86800000  0.77760000  0.00000000
C        C    0.47366667  0.00833333  0.55573333  0.00000000
C        C    0.20133333  0.85966667  0.88906667  0.00000000
C        C    0.00833333  0.53466667  0.44426667  0.00000000
H        H    0.45273333  0.47806667  0.44136667  0.00000000
H        H    0.64133333  0.78606667  0.89196667  0.00000000
H        H    0.11940000  0.81140000  0.77470000  0.00000000
H        H    0.54726667  0.52193333  0.55863333  0.00000000
H        H    0.97466667  0.45273333  0.55863333  0.00000000
H        H    0.18860000  0.30800000  0.77470000  0.00000000
H        H    0.30800000  0.11940000  0.22530000  0.00000000
H        H    0.78606667  0.14473333  0.10803333  0.00000000
H        H    0.88060000  0.18860000  0.22530000  0.00000000
H        H    0.85526667  0.64133333  0.10803333  0.00000000
H        H    0.35866667  0.21393333  0.10803333  0.00000000
H        H    0.14473333  0.35866667  0.89196667  0.00000000
H        H    0.81140000  0.69200000  0.22530000  0.00000000
H        H    0.52193333  0.97466667  0.44136667  0.00000000
H        H    0.69200000  0.88060000  0.77470000  0.00000000
H        H    0.47806667  0.02533333  0.55863333  0.00000000
H        H    0.21393333  0.85526667  0.89196667  0.00000000
H        H    0.02533333  0.54726667  0.44136667  0.00000000
C        C    0.49733333  0.49266667  0.44406667  0.00000000
C        C    0.67133333  0.83066667  0.88926667  0.00000000
C        C    0.16400000  0.82600000  0.77740000  0.00000000
C        C    0.50266667  0.50733333  0.55593333  0.00000000
C        C    0.00466667  0.49733333  0.55593333  0.00000000
C        C    0.17400000  0.33800000  0.77740000  0.00000000
C        C    0.33800000  0.16400000  0.22260000  0.00000000
C        C    0.83066667  0.15933333  0.11073333  0.00000000
C        C    0.83600000  0.17400000  0.22260000  0.00000000
C        C    0.84066667  0.67133333  0.11073333  0.00000000
C        C    0.32866667  0.16933333  0.11073333  0.00000000
C        C    0.15933333  0.32866667  0.88926667  0.00000000
C        C    0.82600000  0.66200000  0.22260000  0.00000000
C        C    0.50733333  0.00466667  0.44406667  0.00000000
C        C    0.66200000  0.83600000  0.77740000  0.00000000
C        C    0.49266667  0.99533333  0.55593333  0.00000000
C        C    0.16933333  0.84066667  0.88926667  0.00000000
C        C    0.99533333  0.50266667  0.44406667  0.00000000
C        C    0.54033333  0.54666667  0.44136667  0.00000000
C        C    0.66033333  0.87366667  0.89196667  0.00000000
C        C    0.20700000  0.88000000  0.77470000  0.00000000
C        C    0.45966667  0.45333333  0.55863333  0.00000000
C        C    0.99366667  0.54033333  0.55863333  0.00000000
C        C    0.12000000  0.32700000  0.77470000  0.00000000
C        C    0.32700000  0.20700000  0.22530000  0.00000000
C        C    0.87366667  0.21333333  0.10803333  0.00000000
C        C    0.79300000  0.12000000  0.22530000  0.00000000
C        C    0.78666667  0.66033333  0.10803333  0.00000000
C        C    0.33966667  0.12633333  0.10803333  0.00000000
C        C    0.21333333  0.33966667  0.89196667  0.00000000
C        C    0.88000000  0.67300000  0.22530000  0.00000000
C        C    0.45333333  0.99366667  0.44136667  0.00000000
C        C    0.67300000  0.79300000  0.77470000  0.00000000
C        C    0.54666667  0.00633333  0.55863333  0.00000000
C        C    0.12633333  0.78666667  0.89196667  0.00000000
C        C    0.00633333  0.45966667  0.44136667  0.00000000
H        H    0.54863333  0.54666667  0.44566667  0.00000000
H        H    0.66863333  0.88196667  0.88766667  0.00000000
H        H    0.21530000  0.88000000  0.77900000  0.00000000
H        H    0.45136667  0.45333333  0.55433333  0.00000000
H        H    0.00196667  0.54863333  0.55433333  0.00000000
H        H    0.12000000  0.33530000  0.77900000  0.00000000
H        H    0.33530000  0.21530000  0.22100000  0.00000000
H        H    0.88196667  0.21333333  0.11233333  0.00000000
H        H    0.78470000  0.12000000  0.22100000  0.00000000
H        H    0.78666667  0.66863333  0.11233333  0.00000000
H        H    0.33136667  0.11803333  0.11233333  0.00000000
H        H    0.21333333  0.33136667  0.88766667  0.00000000
H        H    0.88000000  0.66470000  0.22100000  0.00000000
H        H    0.45333333  0.00196667  0.44566667  0.00000000
H        H    0.66470000  0.78470000  0.77900000  0.00000000
H        H    0.54666667  0.99803333  0.55433333  0.00000000
H        H    0.11803333  0.78666667  0.88766667  0.00000000
H        H    0.99803333  0.45136667  0.44566667  0.00000000
C        C    0.51233333  0.52066667  0.43946667  0.00000000
C        C    0.65833333  0.84566667  0.89386667  0.00000000
C        C    0.17900000  0.85400000  0.77280000  0.00000000
C        C    0.48766667  0.47933333  0.56053333  0.00000000
C        C    0.99166667  0.51233333  0.56053333  0.00000000
C        C    0.14600000  0.32500000  0.77280000  0.00000000
C        C    0.32500000  0.17900000  0.22720000  0.00000000
C        C    0.84566667  0.18733333  0.10613333  0.00000000
C        C    0.82100000  0.14600000  0.22720000  0.00000000
C        C    0.81266667  0.65833333  0.10613333  0.00000000
C        C    0.34166667  0.15433333  0.10613333  0.00000000
C        C    0.18733333  0.34166667  0.89386667  0.00000000
C        C    0.85400000  0.67500000  0.22720000  0.00000000
C        C    0.47933333  0.99166667  0.43946667  0.00000000
C        C    0.67500000  0.82100000  0.77280000  0.00000000
C        C    0.52066667  0.00833333  0.56053333  0.00000000
C        C    0.15433333  0.81266667  0.89386667  0.00000000
C        C    0.00833333  0.48766667  0.43946667  0.00000000
C        C    0.49933333  0.52066667  0.43296667  0.00000000
C        C    0.64533333  0.83266667  0.90036667  0.00000000
C        C    0.16600000  0.85400000  0.76630000  0.00000000
C        C    0.50066667  0.47933333  0.56703333  0.00000000
C        C    0.97866667  0.49933333  0.56703333  0.00000000
C        C    0.14600000  0.31200000  0.76630000  0.00000000
C        C    0.31200000  0.16600000  0.23370000  0.00000000
C        C    0.83266667  0.18733333  0.09963333  0.00000000
C        C    0.83400000  0.14600000  0.23370000  0.00000000
C        C    0.81266667  0.64533333  0.09963333  0.00000000
C        C    0.35466667  0.16733333  0.09963333  0.00000000
C        C    0.18733333  0.35466667  0.90036667  0.00000000
C        C    0.85400000  0.68800000  0.23370000  0.00000000
C        C    0.47933333  0.97866667  0.43296667  0.00000000
C        C    0.68800000  0.83400000  0.76630000  0.00000000
C        C    0.52066667  0.02133333  0.56703333  0.00000000
C        C    0.16733333  0.81266667  0.90036667  0.00000000
C        C    0.02133333  0.50066667  0.43296667  0.00000000
H        H    0.48113333  0.50386667  0.43156667  0.00000000
H        H    0.64393333  0.81446667  0.90176667  0.00000000
H        H    0.14780000  0.83720000  0.76490000  0.00000000
H        H    0.51886667  0.49613333  0.56843333  0.00000000
H        H    0.97726667  0.48113333  0.56843333  0.00000000
H        H    0.16280000  0.31060000  0.76490000  0.00000000
H        H    0.31060000  0.14780000  0.23510000  0.00000000
H        H    0.81446667  0.17053333  0.09823333  0.00000000
H        H    0.85220000  0.16280000  0.23510000  0.00000000
H        H    0.82946667  0.64393333  0.09823333  0.00000000
H        H    0.35606667  0.18553333  0.09823333  0.00000000
H        H    0.17053333  0.35606667  0.90176667  0.00000000
H        H    0.83720000  0.68940000  0.23510000  0.00000000
H        H    0.49613333  0.97726667  0.43156667  0.00000000
H        H    0.68940000  0.85220000  0.76490000  0.00000000
H        H    0.50386667  0.02273333  0.56843333  0.00000000
H        H    0.18553333  0.82946667  0.90176667  0.00000000
H        H    0.02273333  0.51886667  0.43156667  0.00000000
C        C    0.51433333  0.54666667  0.42866667  0.00000000
C        C    0.63433333  0.84766667  0.90466667  0.00000000
C        C    0.18100000  0.88000000  0.76200000  0.00000000
C        C    0.48566667  0.45333333  0.57133333  0.00000000
C        C    0.96766667  0.51433333  0.57133333  0.00000000
C        C    0.12000000  0.30100000  0.76200000  0.00000000
C        C    0.30100000  0.18100000  0.23800000  0.00000000
C        C    0.84766667  0.21333333  0.09533333  0.00000000
C        C    0.81900000  0.12000000  0.23800000  0.00000000
C        C    0.78666667  0.63433333  0.09533333  0.00000000
C        C    0.36566667  0.15233333  0.09533333  0.00000000
C        C    0.21333333  0.36566667  0.90466667  0.00000000
C        C    0.88000000  0.69900000  0.23800000  0.00000000
C        C    0.45333333  0.96766667  0.42866667  0.00000000
C        C    0.69900000  0.81900000  0.76200000  0.00000000
C        C    0.54666667  0.03233333  0.57133333  0.00000000
C        C    0.15233333  0.78666667  0.90466667  0.00000000
C        C    0.03233333  0.48566667  0.42866667  0.00000000
H        H    0.50503333  0.54676667  0.42436667  0.00000000
H        H    0.62493333  0.83836667  0.90896667  0.00000000
H        H    0.17170000  0.88010000  0.75770000  0.00000000
H        H    0.49496667  0.45323333  0.57563333  0.00000000
H        H    0.95826667  0.50503333  0.57563333  0.00000000
H        H    0.11990000  0.29160000  0.75770000  0.00000000
H        H    0.29160000  0.17170000  0.24230000  0.00000000
H        H    0.83836667  0.21343333  0.09103333  0.00000000
H        H    0.82830000  0.11990000  0.24230000  0.00000000
H        H    0.78656667  0.62493333  0.09103333  0.00000000
H        H    0.37506667  0.16163333  0.09103333  0.00000000
H        H    0.21343333  0.37506667  0.90896667  0.00000000
H        H    0.88010000  0.70840000  0.24230000  0.00000000
H        H    0.45323333  0.95826667  0.42436667  0.00000000
H        H    0.70840000  0.82830000  0.75770000  0.00000000
H        H    0.54676667  0.04173333  0.57563333  0.00000000
H        H    0.16163333  0.78656667  0.90896667  0.00000000
H        H    0.04173333  0.49496667  0.42436667  0.00000000
C        C    0.54133333  0.57266667  0.43066667  0.00000000
C        C    0.63533333  0.87466667  0.90266667  0.00000000
C        C    0.20800000  0.90600000  0.76400000  0.00000000
C        C    0.45866667  0.42733333  0.56933333  0.00000000
C        C    0.96866667  0.54133333  0.56933333  0.00000000
C        C    0.09400000  0.30200000  0.76400000  0.00000000
C        C    0.30200000  0.20800000  0.23600000  0.00000000
C        C    0.87466667  0.23933333  0.09733333  0.00000000
C        C    0.79200000  0.09400000  0.23600000  0.00000000
C        C    0.76066667  0.63533333  0.09733333  0.00000000
C        C    0.36466667  0.12533333  0.09733333  0.00000000
C        C    0.23933333  0.36466667  0.90266667  0.00000000
C        C    0.90600000  0.69800000  0.23600000  0.00000000
C        C    0.42733333  0.96866667  0.43066667  0.00000000
C        C    0.69800000  0.79200000  0.76400000  0.00000000
C        C    0.57266667  0.03133333  0.56933333  0.00000000
C        C    0.12533333  0.76066667  0.90266667  0.00000000
C        C    0.03133333  0.45866667  0.43066667  0.00000000
C        C    0.55433333  0.57166667  0.43706667  0.00000000
C        C    0.64933333  0.88766667  0.89626667  0.00000000
C        C    0.22100000  0.90500000  0.77040000  0.00000000
C        C    0.44566667  0.42833333  0.56293333  0.00000000
C        C    0.98266667  0.55433333  0.56293333  0.00000000
C        C    0.09500000  0.31600000  0.77040000  0.00000000
C        C    0.31600000  0.22100000  0.22960000  0.00000000
C        C    0.88766667  0.23833333  0.10373333  0.00000000
C        C    0.77900000  0.09500000  0.22960000  0.00000000
C        C    0.76166667  0.64933333  0.10373333  0.00000000
C        C    0.35066667  0.11233333  0.10373333  0.00000000
C        C    0.23833333  0.35066667  0.89626667  0.00000000
C        C    0.90500000  0.68400000  0.22960000  0.00000000
C        C    0.42833333  0.98266667  0.43706667  0.00000000
C        C    0.68400000  0.77900000  0.77040000  0.00000000
C        C    0.57166667  0.01733333  0.56293333  0.00000000
C        C    0.11233333  0.76166667  0.89626667  0.00000000
C        C    0.01733333  0.44566667  0.43706667  0.00000000
H        H    0.57273333  0.58906667  0.43846667  0.00000000
H        H    0.65033333  0.90606667  0.89486667  0.00000000
H        H    0.23940000  0.92240000  0.77180000  0.00000000
H        H    0.42726667  0.41093333  0.56153333  0.00000000
H        H    0.98366667  0.57273333  0.56153333  0.00000000
H        H    0.07760000  0.31700000  0.77180000  0.00000000
H        H    0.31700000  0.23940000  0.22820000  0.00000000
H        H    0.90606667  0.25573333  0.10513333  0.00000000
H        H    0.76060000  0.07760000  0.22820000  0.00000000
H        H    0.74426667  0.65033333  0.10513333  0.00000000
H        H    0.34966667  0.09393333  0.10513333  0.00000000
H        H    0.25573333  0.34966667  0.89486667  0.00000000
H        H    0.92240000  0.68300000  0.22820000  0.00000000
H        H    0.41093333  0.98366667  0.43846667  0.00000000
H        H    0.68300000  0.76060000  0.77180000  0.00000000
H        H    0.58906667  0.01633333  0.56153333  0.00000000
H        H    0.09393333  0.74426667  0.89486667  0.00000000
H        H    0.01633333  0.42726667  0.43846667  0.00000000
C        C    0.23733333  0.88866667  0.39626667  0.00000000
C        C    0.01533333  0.57066667  0.93706667  0.00000000
C        C    0.90400000  0.22200000  0.72960000  0.00000000
C        C    0.76266667  0.11133333  0.60373333  0.00000000
C        C    0.34866667  0.23733333  0.60373333  0.00000000
C        C    0.77800000  0.68200000  0.72960000  0.00000000
C        C    0.68200000  0.90400000  0.27040000  0.00000000
C        C    0.57066667  0.55533333  0.06293333  0.00000000
C        C    0.09600000  0.77800000  0.27040000  0.00000000
C        C    0.44466667  0.01533333  0.06293333  0.00000000
C        C    0.98466667  0.42933333  0.06293333  0.00000000
C        C    0.55533333  0.98466667  0.93706667  0.00000000
C        C    0.22200000  0.31800000  0.27040000  0.00000000
C        C    0.11133333  0.34866667  0.39626667  0.00000000
C        C    0.31800000  0.09600000  0.72960000  0.00000000
C        C    0.88866667  0.65133333  0.60373333  0.00000000
C        C    0.42933333  0.44466667  0.93706667  0.00000000
C        C    0.65133333  0.76266667  0.39626667  0.00000000
H        H    0.25403333  0.90726667  0.39476667  0.00000000
H        H    0.01343333  0.58736667  0.93856667  0.00000000
H        H    0.92070000  0.24060000  0.72810000  0.00000000
H        H    0.74596667  0.09273333  0.60523333  0.00000000
H        H    0.34676667  0.25403333  0.60523333  0.00000000
H        H    0.75940000  0.68010000  0.72810000  0.00000000
H        H    0.68010000  0.92070000  0.27190000  0.00000000
H        H    0.58736667  0.57393333  0.06143333  0.00000000
H        H    0.07930000  0.75940000  0.27190000  0.00000000
H        H    0.42606667  0.01343333  0.06143333  0.00000000
H        H    0.98656667  0.41263333  0.06143333  0.00000000
H        H    0.57393333  0.98656667  0.93856667  0.00000000
H        H    0.24060000  0.31990000  0.27190000  0.00000000
H        H    0.09273333  0.34676667  0.39476667  0.00000000
H        H    0.31990000  0.07930000  0.72810000  0.00000000
H        H    0.90726667  0.65323333  0.60523333  0.00000000
H        H    0.41263333  0.42606667  0.93856667  0.00000000
H        H    0.65323333  0.74596667  0.39476667  0.00000000
C        C    0.23833333  0.87566667  0.40256667  0.00000000
C        C    0.02933333  0.57166667  0.93076667  0.00000000
C        C    0.90500000  0.20900000  0.73590000  0.00000000
C        C    0.76166667  0.12433333  0.59743333  0.00000000
C        C    0.36266667  0.23833333  0.59743333  0.00000000
C        C    0.79100000  0.69600000  0.73590000  0.00000000
C        C    0.69600000  0.90500000  0.26410000  0.00000000
C        C    0.57166667  0.54233333  0.06923333  0.00000000
C        C    0.09500000  0.79100000  0.26410000  0.00000000
C        C    0.45766667  0.02933333  0.06923333  0.00000000
C        C    0.97066667  0.42833333  0.06923333  0.00000000
C        C    0.54233333  0.97066667  0.93076667  0.00000000
C        C    0.20900000  0.30400000  0.26410000  0.00000000
C        C    0.12433333  0.36266667  0.40256667  0.00000000
C        C    0.30400000  0.09500000  0.73590000  0.00000000
C        C    0.87566667  0.63733333  0.59743333  0.00000000
C        C    0.42833333  0.45766667  0.93076667  0.00000000
C        C    0.63733333  0.76166667  0.40256667  0.00000000
C        C    0.21333333  0.84866667  0.40456667  0.00000000
C        C    0.03133333  0.54666667  0.92876667  0.00000000
C        C    0.88000000  0.18200000  0.73790000  0.00000000
C        C    0.78666667  0.15133333  0.59543333  0.00000000
C        C    0.36466667  0.21333333  0.59543333  0.00000000
C        C    0.81800000  0.69800000  0.73790000  0.00000000
C        C    0.69800000  0.88000000  0.26210000  0.00000000
C        C    0.54666667  0.51533333  0.07123333  0.00000000
C        C    0.12000000  0.81800000  0.26210000  0.00000000
C        C    0.48466667  0.03133333  0.07123333  0.00000000
C        C    0.96866667  0.45333333  0.07123333  0.00000000
C        C    0.51533333  0.96866667  0.92876667  0.00000000
C        C    0.18200000  0.30200000  0.26210000  0.00000000
C        C    0.15133333  0.36466667  0.40456667  0.00000000
C        C    0.30200000  0.12000000  0.73790000  0.00000000
C        C    0.84866667  0.63533333  0.59543333  0.00000000
C        C    0.45333333  0.48466667  0.92876667  0.00000000
C        C    0.63533333  0.78666667  0.40456667  0.00000000
H        H    0.21303333  0.83936667  0.40886667  0.00000000
H        H    0.04033333  0.54636667  0.92446667  0.00000000
H        H    0.87970000  0.17270000  0.74220000  0.00000000
H        H    0.78696667  0.16063333  0.59113333  0.00000000
H        H    0.37366667  0.21303333  0.59113333  0.00000000
H        H    0.82730000  0.70700000  0.74220000  0.00000000
H        H    0.70700000  0.87970000  0.25780000  0.00000000
H        H    0.54636667  0.50603333  0.07553333  0.00000000
H        H    0.12030000  0.82730000  0.25780000  0.00000000
H        H    0.49396667  0.04033333  0.07553333  0.00000000
H        H    0.95966667  0.45363333  0.07553333  0.00000000
H        H    0.50603333  0.95966667  0.92446667  0.00000000
H        H    0.17270000  0.29300000  0.25780000  0.00000000
H        H    0.16063333  0.37366667  0.40886667  0.00000000
H        H    0.29300000  0.12030000  0.74220000  0.00000000
H        H    0.83936667  0.62633333  0.59113333  0.00000000
H        H    0.45363333  0.49396667  0.92446667  0.00000000
H        H    0.62633333  0.78696667  0.40886667  0.00000000
C        C    0.18633333  0.83366667  0.40036667  0.00000000
C        C    0.01933333  0.51966667  0.93296667  0.00000000
C        C    0.85300000  0.16700000  0.73370000  0.00000000
C        C    0.81366667  0.16633333  0.59963333  0.00000000
C        C    0.35266667  0.18633333  0.59963333  0.00000000
C        C    0.83300000  0.68600000  0.73370000  0.00000000
C        C    0.68600000  0.85300000  0.26630000  0.00000000
C        C    0.51966667  0.50033333  0.06703333  0.00000000
C        C    0.14700000  0.83300000  0.26630000  0.00000000
C        C    0.49966667  0.01933333  0.06703333  0.00000000
C        C    0.98066667  0.48033333  0.06703333  0.00000000
C        C    0.50033333  0.98066667  0.93296667  0.00000000
C        C    0.16700000  0.31400000  0.26630000  0.00000000
C        C    0.16633333  0.35266667  0.40036667  0.00000000
C        C    0.31400000  0.14700000  0.73370000  0.00000000
C        C    0.83366667  0.64733333  0.59963333  0.00000000
C        C    0.48033333  0.49966667  0.93296667  0.00000000
C        C    0.64733333  0.81366667  0.40036667  0.00000000
H        H    0.16983333  0.81526667  0.40186667  0.00000000
H        H    0.02123333  0.50316667  0.93146667  0.00000000
H        H    0.83650000  0.14860000  0.73520000  0.00000000
H        H    0.83016667  0.18473333  0.59813333  0.00000000
H        H    0.35456667  0.16983333  0.59813333  0.00000000
H        H    0.85140000  0.68790000  0.73520000  0.00000000
H        H    0.68790000  0.83650000  0.26480000  0.00000000
H        H    0.50316667  0.48193333  0.06853333  0.00000000
H        H    0.16350000  0.85140000  0.26480000  0.00000000
H        H    0.51806667  0.02123333  0.06853333  0.00000000
H        H    0.97876667  0.49683333  0.06853333  0.00000000
H        H    0.48193333  0.97876667  0.93146667  0.00000000
H        H    0.14860000  0.31210000  0.26480000  0.00000000
H        H    0.18473333  0.35456667  0.40186667  0.00000000
H        H    0.31210000  0.16350000  0.73520000  0.00000000
H        H    0.81526667  0.64543333  0.59813333  0.00000000
H        H    0.49683333  0.51806667  0.93146667  0.00000000
H        H    0.64543333  0.83016667  0.40186667  0.00000000
C        C    0.18633333  0.84666667  0.39396667  0.00000000
C        C    0.00633333  0.51966667  0.93936667  0.00000000
C        C    0.85300000  0.18000000  0.72730000  0.00000000
C        C    0.81366667  0.15333333  0.60603333  0.00000000
C        C    0.33966667  0.18633333  0.60603333  0.00000000
C        C    0.82000000  0.67300000  0.72730000  0.00000000
C        C    0.67300000  0.85300000  0.27270000  0.00000000
C        C    0.51966667  0.51333333  0.06063333  0.00000000
C        C    0.14700000  0.82000000  0.27270000  0.00000000
C        C    0.48666667  0.00633333  0.06063333  0.00000000
C        C    0.99366667  0.48033333  0.06063333  0.00000000
C        C    0.51333333  0.99366667  0.93936667  0.00000000
C        C    0.18000000  0.32700000  0.27270000  0.00000000
C        C    0.15333333  0.33966667  0.39396667  0.00000000
C        C    0.32700000  0.14700000  0.72730000  0.00000000
C        C    0.84666667  0.66033333  0.60603333  0.00000000
C        C    0.48033333  0.48666667  0.93936667  0.00000000
C        C    0.66033333  0.81366667  0.39396667  0.00000000
C        C    0.14933333  0.84766667  0.38506667  0.00000000
C        C    0.96833333  0.48266667  0.94826667  0.00000000
C        C    0.81600000  0.18100000  0.71840000  0.00000000
C        C    0.85066667  0.15233333  0.61493333  0.00000000
C        C    0.30166667  0.14933333  0.61493333  0.00000000
C        C    0.81900000  0.63500000  0.71840000  0.00000000
C        C    0.63500000  0.81600000  0.28160000  0.00000000
C        C    0.48266667  0.51433333  0.05173333  0.00000000
C        C    0.18400000  0.81900000  0.28160000  0.00000000
C        C    0.48566667  0.96833333  0.05173333  0.00000000
C        C    0.03166667  0.51733333  0.05173333  0.00000000
C        C    0.51433333  0.03166667  0.94826667  0.00000000
C        C    0.18100000  0.36500000  0.28160000  0.00000000
C        C    0.15233333  0.30166667  0.38506667  0.00000000
C        C    0.36500000  0.18400000  0.71840000  0.00000000
C        C    0.84766667  0.69833333  0.61493333  0.00000000
C        C    0.51733333  0.48566667  0.94826667  0.00000000
C        C    0.69833333  0.85066667  0.38506667  0.00000000
H        H    0.16153333  0.86956667  0.38516667  0.00000000
H        H    0.95863333  0.49486667  0.94816667  0.00000000
H        H    0.82820000  0.20290000  0.71850000  0.00000000
H        H    0.83846667  0.13043333  0.61483333  0.00000000
H        H    0.29196667  0.16153333  0.61483333  0.00000000
H        H    0.79710000  0.62530000  0.71850000  0.00000000
H        H    0.62530000  0.82820000  0.28150000  0.00000000
H        H    0.49486667  0.53623333  0.05183333  0.00000000
H        H    0.17180000  0.79710000  0.28150000  0.00000000
H        H    0.46376667  0.95863333  0.05183333  0.00000000
H        H    0.04136667  0.50513333  0.05183333  0.00000000
H        H    0.53623333  0.04136667  0.94816667  0.00000000
H        H    0.20290000  0.37470000  0.28150000  0.00000000
H        H    0.13043333  0.29196667  0.38516667  0.00000000
H        H    0.37470000  0.17180000  0.71850000  0.00000000
H        H    0.86956667  0.70803333  0.61483333  0.00000000
H        H    0.50513333  0.46376667  0.94816667  0.00000000
H        H    0.70803333  0.83846667  0.38516667  0.00000000
C        C    0.15833333  0.83066667  0.38936667  0.00000000
C        C    0.99433333  0.49166667  0.94396667  0.00000000
C        C    0.82500000  0.16400000  0.72270000  0.00000000
C        C    0.84166667  0.16933333  0.61063333  0.00000000
C        C    0.32766667  0.15833333  0.61063333  0.00000000
C        C    0.83600000  0.66100000  0.72270000  0.00000000
C        C    0.66100000  0.82500000  0.27730000  0.00000000
C        C    0.49166667  0.49733333  0.05603333  0.00000000
C        C    0.17500000  0.83600000  0.27730000  0.00000000
C        C    0.50266667  0.99433333  0.05603333  0.00000000
C        C    0.00566667  0.50833333  0.05603333  0.00000000
C        C    0.49733333  0.00566667  0.94396667  0.00000000
C        C    0.16400000  0.33900000  0.27730000  0.00000000
C        C    0.16933333  0.32766667  0.38936667  0.00000000
C        C    0.33900000  0.17500000  0.72270000  0.00000000
C        C    0.83066667  0.67233333  0.61063333  0.00000000
C        C    0.50833333  0.50266667  0.94396667  0.00000000
C        C    0.67233333  0.84166667  0.38936667  0.00000000
C        C    0.13933333  0.79866667  0.38906667  0.00000000
C        C    0.00733333  0.47266667  0.94426667  0.00000000
C        C    0.80600000  0.13200000  0.72240000  0.00000000
C        C    0.86066667  0.20133333  0.61093333  0.00000000
C        C    0.34066667  0.13933333  0.61093333  0.00000000
C        C    0.86800000  0.67400000  0.72240000  0.00000000
C        C    0.67400000  0.80600000  0.27760000  0.00000000
C        C    0.47266667  0.46533333  0.05573333  0.00000000
C        C    0.19400000  0.86800000  0.27760000  0.00000000
C        C    0.53466667  0.00733333  0.05573333  0.00000000
C        C    0.99266667  0.52733333  0.05573333  0.00000000
C        C    0.46533333  0.99266667  0.94426667  0.00000000
C        C    0.13200000  0.32600000  0.27760000  0.00000000
C        C    0.20133333  0.34066667  0.38906667  0.00000000
C        C    0.32600000  0.19400000  0.72240000  0.00000000
C        C    0.79866667  0.65933333  0.61093333  0.00000000
C        C    0.52733333  0.53466667  0.94426667  0.00000000
C        C    0.65933333  0.86066667  0.38906667  0.00000000
H        H    0.14443333  0.78666667  0.39196667  0.00000000
H        H    0.02443333  0.47776667  0.94136667  0.00000000
H        H    0.81110000  0.12000000  0.72530000  0.00000000
H        H    0.85556667  0.21333333  0.60803333  0.00000000
H        H    0.35776667  0.14443333  0.60803333  0.00000000
H        H    0.88000000  0.69110000  0.72530000  0.00000000
H        H    0.69110000  0.81110000  0.27470000  0.00000000
H        H    0.47776667  0.45333333  0.05863333  0.00000000
H        H    0.18890000  0.88000000  0.27470000  0.00000000
H        H    0.54666667  0.02443333  0.05863333  0.00000000
H        H    0.97556667  0.52223333  0.05863333  0.00000000
H        H    0.45333333  0.97556667  0.94136667  0.00000000
H        H    0.12000000  0.30890000  0.27470000  0.00000000
H        H    0.21333333  0.35776667  0.39196667  0.00000000
H        H    0.30890000  0.18890000  0.72530000  0.00000000
H        H    0.78666667  0.64223333  0.60803333  0.00000000
H        H    0.52223333  0.54666667  0.94136667  0.00000000
H        H    0.64223333  0.85556667  0.39196667  0.00000000
C        C    0.11433333  0.78466667  0.38456667  0.00000000
C        C    0.99633333  0.44766667  0.94876667  0.00000000
C        C    0.78100000  0.11800000  0.71790000  0.00000000
C        C    0.88566667  0.21533333  0.61543333  0.00000000
C        C    0.32966667  0.11433333  0.61543333  0.00000000
C        C    0.88200000  0.66300000  0.71790000  0.00000000
C        C    0.66300000  0.78100000  0.28210000  0.00000000
C        C    0.44766667  0.45133333  0.05123333  0.00000000
C        C    0.21900000  0.88200000  0.28210000  0.00000000
C        C    0.54866667  0.99633333  0.05123333  0.00000000
C        C    0.00366667  0.55233333  0.05123333  0.00000000
C        C    0.45133333  0.00366667  0.94876667  0.00000000
C        C    0.11800000  0.33700000  0.28210000  0.00000000
C        C    0.21533333  0.32966667  0.38456667  0.00000000
C        C    0.33700000  0.21900000  0.71790000  0.00000000
C        C    0.78466667  0.67033333  0.61543333  0.00000000
C        C    0.55233333  0.54866667  0.94876667  0.00000000
C        C    0.67033333  0.88566667  0.38456667  0.00000000
H        H    0.10253333  0.76306667  0.38456667  0.00000000
H        H    0.00613333  0.43586667  0.94876667  0.00000000
H        H    0.76920000  0.09640000  0.71790000  0.00000000
H        H    0.89746667  0.23693333  0.61543333  0.00000000
H        H    0.33946667  0.10253333  0.61543333  0.00000000
H        H    0.90360000  0.67280000  0.71790000  0.00000000
H        H    0.67280000  0.76920000  0.28210000  0.00000000
H        H    0.43586667  0.42973333  0.05123333  0.00000000
H        H    0.23080000  0.90360000  0.28210000  0.00000000
H        H    0.57026667  0.00613333  0.05123333  0.00000000
H        H    0.99386667  0.56413333  0.05123333  0.00000000
H        H    0.42973333  0.99386667  0.94876667  0.00000000
H        H    0.09640000  0.32720000  0.28210000  0.00000000
H        H    0.23693333  0.33946667  0.38456667  0.00000000
H        H    0.32720000  0.23080000  0.71790000  0.00000000
H        H    0.76306667  0.66053333  0.61543333  0.00000000
H        H    0.56413333  0.57026667  0.94876667  0.00000000
H        H    0.66053333  0.89746667  0.38456667  0.00000000
C        C    0.10733333  0.80166667  0.38016667  0.00000000
C        C    0.97233333  0.44066667  0.95316667  0.00000000
C        C    0.77400000  0.13500000  0.71350000  0.00000000
C        C    0.89266667  0.19833333  0.61983333  0.00000000
C        C    0.30566667  0.10733333  0.61983333  0.00000000
C        C    0.86500000  0.63900000  0.71350000  0.00000000
C        C    0.63900000  0.77400000  0.28650000  0.00000000
C        C    0.44066667  0.46833333  0.04683333  0.00000000
C        C    0.22600000  0.86500000  0.28650000  0.00000000
C        C    0.53166667  0.97233333  0.04683333  0.00000000
C        C    0.02766667  0.55933333  0.04683333  0.00000000
C        C    0.46833333  0.02766667  0.95316667  0.00000000
C        C    0.13500000  0.36100000  0.28650000  0.00000000
C        C    0.19833333  0.30566667  0.38016667  0.00000000
C        C    0.36100000  0.22600000  0.71350000  0.00000000
C        C    0.80166667  0.69433333  0.61983333  0.00000000
C        C    0.55933333  0.53166667  0.95316667  0.00000000
C        C    0.69433333  0.89266667  0.38016667  0.00000000
C        C    0.12533333  0.83366667  0.38046667  0.00000000
C        C    0.95833333  0.45866667  0.95286667  0.00000000
C        C    0.79200000  0.16700000  0.71380000  0.00000000
C        C    0.87466667  0.16633333  0.61953333  0.00000000
C        C    0.29166667  0.12533333  0.61953333  0.00000000
C        C    0.83300000  0.62500000  0.71380000  0.00000000
C        C    0.62500000  0.79200000  0.28620000  0.00000000
C        C    0.45866667  0.50033333  0.04713333  0.00000000
C        C    0.20800000  0.83300000  0.28620000  0.00000000
C        C    0.49966667  0.95833333  0.04713333  0.00000000
C        C    0.04166667  0.54133333  0.04713333  0.00000000
C        C    0.50033333  0.04166667  0.95286667  0.00000000
C        C    0.16700000  0.37500000  0.28620000  0.00000000
C        C    0.16633333  0.29166667  0.38046667  0.00000000
C        C    0.37500000  0.20800000  0.71380000  0.00000000
C        C    0.83366667  0.70833333  0.61953333  0.00000000
C        C    0.54133333  0.49966667  0.95286667  0.00000000
C        C    0.70833333  0.87466667  0.38046667  0.00000000
H        H    0.12033333  0.84596667  0.37766667  0.00000000
H        H    0.94103333  0.45366667  0.95566667  0.00000000
H        H    0.78700000  0.17930000  0.71100000  0.00000000
H        H    0.87966667  0.15403333  0.62233333  0.00000000
H        H    0.27436667  0.12033333  0.62233333  0.00000000
H        H    0.82070000  0.60770000  0.71100000  0.00000000
H        H    0.60770000  0.78700000  0.28900000  0.00000000
H        H    0.45366667  0.51263333  0.04433333  0.00000000
H        H    0.21300000  0.82070000  0.28900000  0.00000000
H        H    0.48736667  0.94103333  0.04433333  0.00000000
H        H    0.05896667  0.54633333  0.04433333  0.00000000
H        H    0.51263333  0.05896667  0.95566667  0.00000000
H        H    0.17930000  0.39230000  0.28900000  0.00000000
H        H    0.15403333  0.27436667  0.37766667  0.00000000
H        H    0.39230000  0.21300000  0.71100000  0.00000000
H        H    0.84596667  0.72563333  0.62233333  0.00000000
H        H    0.54633333  0.48736667  0.95566667  0.00000000
H        H    0.72563333  0.87966667  0.37766667  0.00000000
C        C    0.08233333  0.78766667  0.37506667  0.00000000
C        C    0.96133333  0.41566667  0.95826667  0.00000000
C        C    0.74900000  0.12100000  0.70840000  0.00000000
C        C    0.91766667  0.21233333  0.62493333  0.00000000
C        C    0.29466667  0.08233333  0.62493333  0.00000000
C        C    0.87900000  0.62800000  0.70840000  0.00000000
C        C    0.62800000  0.74900000  0.29160000  0.00000000
C        C    0.41566667  0.45433333  0.04173333  0.00000000
C        C    0.25100000  0.87900000  0.29160000  0.00000000
C        C    0.54566667  0.96133333  0.04173333  0.00000000
C        C    0.03866667  0.58433333  0.04173333  0.00000000
C        C    0.45433333  0.03866667  0.95826667  0.00000000
C        C    0.12100000  0.37200000  0.29160000  0.00000000
C        C    0.21233333  0.29466667  0.37506667  0.00000000
C        C    0.37200000  0.25100000  0.70840000  0.00000000
C        C    0.78766667  0.70533333  0.62493333  0.00000000
C        C    0.58433333  0.54566667  0.95826667  0.00000000
C        C    0.70533333  0.91766667  0.37506667  0.00000000
C        C    0.26633333  0.89166667  0.40696667  0.00000000
C        C    0.04133333  0.59966667  0.92636667  0.00000000
C        C    0.93300000  0.22500000  0.74030000  0.00000000
C        C    0.73366667  0.10833333  0.59303333  0.00000000
C        C    0.37466667  0.26633333  0.59303333  0.00000000
C        C    0.77500000  0.70800000  0.74030000  0.00000000
C        C    0.70800000  0.93300000  0.25970000  0.00000000
C        C    0.59966667  0.55833333  0.07363333  0.00000000
C        C    0.06700000  0.77500000  0.25970000  0.00000000
C        C    0.44166667  0.04133333  0.07363333  0.00000000
C        C    0.95866667  0.40033333  0.07363333  0.00000000
C        C    0.55833333  0.95866667  0.92636667  0.00000000
C        C    0.22500000  0.29200000  0.25970000  0.00000000
C        C    0.10833333  0.37466667  0.40696667  0.00000000
C        C    0.29200000  0.06700000  0.74030000  0.00000000
C        C    0.89166667  0.62533333  0.59303333  0.00000000
C        C    0.40033333  0.44166667  0.92636667  0.00000000
C        C    0.62533333  0.73366667  0.40696667  0.00000000
C        C    0.51033333  0.48566667  0.49186667  0.00000000
C        C    0.69133333  0.84366667  0.84146667  0.00000000
C        C    0.17700000  0.81900000  0.82520000  0.00000000
C        C    0.48966667  0.51433333  0.50813333  0.00000000
C        C    0.02466667  0.51033333  0.50813333  0.00000000
C        C    0.18100000  0.35800000  0.82520000  0.00000000
C        C    0.35800000  0.17700000  0.17480000  0.00000000
C        C    0.84366667  0.15233333  0.15853333  0.00000000
C        C    0.82300000  0.18100000  0.17480000  0.00000000
C        C    0.84766667  0.69133333  0.15853333  0.00000000
C        C    0.30866667  0.15633333  0.15853333  0.00000000
C        C    0.15233333  0.30866667  0.84146667  0.00000000
C        C    0.81900000  0.64200000  0.17480000  0.00000000
C        C    0.51433333  0.02466667  0.49186667  0.00000000
C        C    0.64200000  0.82300000  0.82520000  0.00000000
C        C    0.48566667  0.97533333  0.50813333  0.00000000
C        C    0.15633333  0.84766667  0.84146667  0.00000000
C        C    0.97533333  0.48966667  0.49186667  0.00000000
H        H    0.53083333  0.50256667  0.49116667  0.00000000
H        H    0.69493333  0.86416667  0.84216667  0.00000000
H        H    0.19750000  0.83590000  0.82450000  0.00000000
H        H    0.46916667  0.49743333  0.50883333  0.00000000
H        H    0.02826667  0.53083333  0.50883333  0.00000000
H        H    0.16410000  0.36160000  0.82450000  0.00000000
H        H    0.36160000  0.19750000  0.17550000  0.00000000
H        H    0.86416667  0.16923333  0.15783333  0.00000000
H        H    0.80250000  0.16410000  0.17550000  0.00000000
H        H    0.83076667  0.69493333  0.15783333  0.00000000
H        H    0.30506667  0.13583333  0.15783333  0.00000000
H        H    0.16923333  0.30506667  0.84216667  0.00000000
H        H    0.83590000  0.63840000  0.17550000  0.00000000
H        H    0.49743333  0.02826667  0.49116667  0.00000000
H        H    0.63840000  0.80250000  0.82450000  0.00000000
H        H    0.50256667  0.97173333  0.50883333  0.00000000
H        H    0.13583333  0.83076667  0.84216667  0.00000000
H        H    0.97173333  0.46916667  0.49116667  0.00000000
C        C    0.49933333  0.46166667  0.48726667  0.00000000
C        C    0.70433333  0.83266667  0.84606667  0.00000000
C        C    0.16600000  0.79500000  0.82060000  0.00000000
C        C    0.50066667  0.53833333  0.51273333  0.00000000
C        C    0.03766667  0.49933333  0.51273333  0.00000000
C        C    0.20500000  0.37100000  0.82060000  0.00000000
C        C    0.37100000  0.16600000  0.17940000  0.00000000
C        C    0.83266667  0.12833333  0.15393333  0.00000000
C        C    0.83400000  0.20500000  0.17940000  0.00000000
C        C    0.87166667  0.70433333  0.15393333  0.00000000
C        C    0.29566667  0.16733333  0.15393333  0.00000000
C        C    0.12833333  0.29566667  0.84606667  0.00000000
C        C    0.79500000  0.62900000  0.17940000  0.00000000
C        C    0.53833333  0.03766667  0.48726667  0.00000000
C        C    0.62900000  0.83400000  0.82060000  0.00000000
C        C    0.46166667  0.96233333  0.51273333  0.00000000
C        C    0.16733333  0.87166667  0.84606667  0.00000000
C        C    0.96233333  0.50066667  0.48726667  0.00000000
H        H    0.51113333  0.46146667  0.48356667  0.00000000
H        H    0.71633333  0.84446667  0.84976667  0.00000000
H        H    0.17780000  0.79480000  0.81690000  0.00000000
H        H    0.48886667  0.53853333  0.51643333  0.00000000
H        H    0.04966667  0.51113333  0.51643333  0.00000000
H        H    0.20520000  0.38300000  0.81690000  0.00000000
H        H    0.38300000  0.17780000  0.18310000  0.00000000
H        H    0.84446667  0.12813333  0.15023333  0.00000000
H        H    0.82220000  0.20520000  0.18310000  0.00000000
H        H    0.87186667  0.71633333  0.15023333  0.00000000
H        H    0.28366667  0.15553333  0.15023333  0.00000000
H        H    0.12813333  0.28366667  0.84976667  0.00000000
H        H    0.79480000  0.61700000  0.18310000  0.00000000
H        H    0.53853333  0.04966667  0.48356667  0.00000000
H        H    0.61700000  0.82220000  0.81690000  0.00000000
H        H    0.46146667  0.95033333  0.51643333  0.00000000
H        H    0.15553333  0.87186667  0.84976667  0.00000000
H        H    0.95033333  0.48886667  0.48356667  0.00000000
C        C    0.47033333  0.43666667  0.48826667  0.00000000
C        C    0.70033333  0.80366667  0.84506667  0.00000000
C        C    0.13700000  0.77000000  0.82160000  0.00000000
C        C    0.52966667  0.56333333  0.51173333  0.00000000
C        C    0.03366667  0.47033333  0.51173333  0.00000000
C        C    0.23000000  0.36700000  0.82160000  0.00000000
C        C    0.36700000  0.13700000  0.17840000  0.00000000
C        C    0.80366667  0.10333333  0.15493333  0.00000000
C        C    0.86300000  0.23000000  0.17840000  0.00000000
C        C    0.89666667  0.70033333  0.15493333  0.00000000
C        C    0.29966667  0.19633333  0.15493333  0.00000000
C        C    0.10333333  0.29966667  0.84506667  0.00000000
C        C    0.77000000  0.63300000  0.17840000  0.00000000
C        C    0.56333333  0.03366667  0.48826667  0.00000000
C        C    0.63300000  0.86300000  0.82160000  0.00000000
C        C    0.43666667  0.96633333  0.51173333  0.00000000
C        C    0.19633333  0.89666667  0.84506667  0.00000000
C        C    0.96633333  0.52966667  0.48826667  0.00000000
C        C    0.45333333  0.43666667  0.49396667  0.00000000
C        C    0.68333333  0.78666667  0.83936667  0.00000000
C        C    0.12000000  0.77000000  0.82730000  0.00000000
C        C    0.54666667  0.56333333  0.50603333  0.00000000
C        C    0.01666667  0.45333333  0.50603333  0.00000000
C        C    0.23000000  0.35000000  0.82730000  0.00000000
C        C    0.35000000  0.12000000  0.17270000  0.00000000
C        C    0.78666667  0.10333333  0.16063333  0.00000000
C        C    0.88000000  0.23000000  0.17270000  0.00000000
C        C    0.89666667  0.68333333  0.16063333  0.00000000
C        C    0.31666667  0.21333333  0.16063333  0.00000000
C        C    0.10333333  0.31666667  0.83936667  0.00000000
C        C    0.77000000  0.65000000  0.17270000  0.00000000
C        C    0.56333333  0.01666667  0.49396667  0.00000000
C        C    0.65000000  0.88000000  0.82730000  0.00000000
C        C    0.43666667  0.98333333  0.50603333  0.00000000
C        C    0.21333333  0.89666667  0.83936667  0.00000000
C        C    0.98333333  0.54666667  0.49396667  0.00000000
H        H    0.43333333  0.41916667  0.49476667  0.00000000
H        H    0.68083333  0.76666667  0.83856667  0.00000000
H        H    0.10000000  0.75250000  0.82810000  0.00000000
H        H    0.56666667  0.58083333  0.50523333  0.00000000
H        H    0.01416667  0.43333333  0.50523333  0.00000000
H        H    0.24750000  0.34750000  0.82810000  0.00000000
H        H    0.34750000  0.10000000  0.17190000  0.00000000
H        H    0.76666667  0.08583333  0.16143333  0.00000000
H        H    0.90000000  0.24750000  0.17190000  0.00000000
H        H    0.91416667  0.68083333  0.16143333  0.00000000
H        H    0.31916667  0.23333333  0.16143333  0.00000000
H        H    0.08583333  0.31916667  0.83856667  0.00000000
H        H    0.75250000  0.65250000  0.17190000  0.00000000
H        H    0.58083333  0.01416667  0.49476667  0.00000000
H        H    0.65250000  0.90000000  0.82810000  0.00000000
H        H    0.41916667  0.98583333  0.50523333  0.00000000
H        H    0.23333333  0.91416667  0.83856667  0.00000000
H        H    0.98583333  0.56666667  0.49476667  0.00000000
C        C    0.46433333  0.46066667  0.49856667  0.00000000
C        C    0.67033333  0.79766667  0.83476667  0.00000000
C        C    0.13100000  0.79400000  0.83190000  0.00000000
C        C    0.53566667  0.53933333  0.50143333  0.00000000
C        C    0.00366667  0.46433333  0.50143333  0.00000000
C        C    0.20600000  0.33700000  0.83190000  0.00000000
C        C    0.33700000  0.13100000  0.16810000  0.00000000
C        C    0.79766667  0.12733333  0.16523333  0.00000000
C        C    0.86900000  0.20600000  0.16810000  0.00000000
C        C    0.87266667  0.67033333  0.16523333  0.00000000
C        C    0.32966667  0.20233333  0.16523333  0.00000000
C        C    0.12733333  0.32966667  0.83476667  0.00000000
C        C    0.79400000  0.66300000  0.16810000  0.00000000
C        C    0.53933333  0.00366667  0.49856667  0.00000000
C        C    0.66300000  0.86900000  0.83190000  0.00000000
C        C    0.46066667  0.99633333  0.50143333  0.00000000
C        C    0.20233333  0.87266667  0.83476667  0.00000000
C        C    0.99633333  0.53566667  0.49856667  0.00000000
H        H    0.45283333  0.45996667  0.50236667  0.00000000
H        H    0.65953333  0.78616667  0.83096667  0.00000000
H        H    0.11950000  0.79330000  0.83570000  0.00000000
H        H    0.54716667  0.54003333  0.49763333  0.00000000
H        H    0.99286667  0.45283333  0.49763333  0.00000000
H        H    0.20670000  0.32620000  0.83570000  0.00000000
H        H    0.32620000  0.11950000  0.16430000  0.00000000
H        H    0.78616667  0.12663333  0.16903333  0.00000000
H        H    0.88050000  0.20670000  0.16430000  0.00000000
H        H    0.87336667  0.65953333  0.16903333  0.00000000
H        H    0.34046667  0.21383333  0.16903333  0.00000000
H        H    0.12663333  0.34046667  0.83096667  0.00000000
H        H    0.79330000  0.67380000  0.16430000  0.00000000
H        H    0.54003333  0.99286667  0.50236667  0.00000000
H        H    0.67380000  0.88050000  0.83570000  0.00000000
H        H    0.45996667  0.00713333  0.49763333  0.00000000
H        H    0.21383333  0.87336667  0.83096667  0.00000000
H        H    0.00713333  0.54716667  0.50236667  0.00000000
C        C    0.49433333  0.48666667  0.49756667  0.00000000
C        C    0.67433333  0.82766667  0.83576667  0.00000000
C        C    0.16100000  0.82000000  0.83090000  0.00000000
C        C    0.50566667  0.51333333  0.50243333  0.00000000
C        C    0.00766667  0.49433333  0.50243333  0.00000000
C        C    0.18000000  0.34100000  0.83090000  0.00000000
C        C    0.34100000  0.16100000  0.16910000  0.00000000
C        C    0.82766667  0.15333333  0.16423333  0.00000000
C        C    0.83900000  0.18000000  0.16910000  0.00000000
C        C    0.84666667  0.67433333  0.16423333  0.00000000
C        C    0.32566667  0.17233333  0.16423333  0.00000000
C        C    0.15333333  0.32566667  0.83576667  0.00000000
C        C    0.82000000  0.65900000  0.16910000  0.00000000
C        C    0.51333333  0.00766667  0.49756667  0.00000000
C        C    0.65900000  0.83900000  0.83090000  0.00000000
C        C    0.48666667  0.99233333  0.50243333  0.00000000
C        C    0.17233333  0.84666667  0.83576667  0.00000000
C        C    0.99233333  0.50566667  0.49756667  0.00000000
C        C    0.66233333  0.79366667  0.33186667  0.00000000
C        C    0.53533333  0.99566667  0.00146667  0.00000000
C        C    0.32900000  0.12700000  0.66520000  0.00000000
C        C    0.33766667  0.20633333  0.66813333  0.00000000
C        C    0.86866667  0.66233333  0.66813333  0.00000000
C        C    0.87300000  0.20200000  0.66520000  0.00000000
C        C    0.20200000  0.32900000  0.33480000  0.00000000
C        C    0.99566667  0.46033333  0.99853333  0.00000000
C        C    0.67100000  0.87300000  0.33480000  0.00000000
C        C    0.53966667  0.53533333  0.99853333  0.00000000
C        C    0.46466667  0.00433333  0.99853333  0.00000000
C        C    0.46033333  0.46466667  0.00146667  0.00000000
C        C    0.12700000  0.79800000  0.33480000  0.00000000
C        C    0.20633333  0.86866667  0.33186667  0.00000000
C        C    0.79800000  0.67100000  0.66520000  0.00000000
C        C    0.79366667  0.13133333  0.66813333  0.00000000
C        C    0.00433333  0.53966667  0.00146667  0.00000000
C        C    0.13133333  0.33766667  0.33186667  0.00000000
H        H    0.67303333  0.79286667  0.33576667  0.00000000
H        H    0.54683333  0.00636667  0.99756667  0.00000000
H        H    0.33970000  0.12620000  0.66910000  0.00000000
H        H    0.32696667  0.20713333  0.66423333  0.00000000
H        H    0.88016667  0.67303333  0.66423333  0.00000000
H        H    0.87380000  0.21350000  0.66910000  0.00000000
H        H    0.21350000  0.33970000  0.33090000  0.00000000
H        H    0.00636667  0.45953333  0.00243333  0.00000000
H        H    0.66030000  0.87380000  0.33090000  0.00000000
H        H    0.54046667  0.54683333  0.00243333  0.00000000
H        H    0.45316667  0.99363333  0.00243333  0.00000000
H        H    0.45953333  0.45316667  0.99756667  0.00000000
H        H    0.12620000  0.78650000  0.33090000  0.00000000
H        H    0.20713333  0.88016667  0.33576667  0.00000000
H        H    0.78650000  0.66030000  0.66910000  0.00000000
H        H    0.79286667  0.11983333  0.66423333  0.00000000
H        H    0.99363333  0.54046667  0.99756667  0.00000000
H        H    0.11983333  0.32696667  0.33576667  0.00000000
C        C    0.64933333  0.76966667  0.32726667  0.00000000
C        C    0.54633333  0.98266667  0.00606667  0.00000000
C        C    0.31600000  0.10300000  0.66060000  0.00000000
C        C    0.35066667  0.23033333  0.67273333  0.00000000
C        C    0.87966667  0.64933333  0.67273333  0.00000000
C        C    0.89700000  0.21300000  0.66060000  0.00000000
C        C    0.21300000  0.31600000  0.33940000  0.00000000
C        C    0.98266667  0.43633333  0.99393333  0.00000000
C        C    0.68400000  0.89700000  0.33940000  0.00000000
C        C    0.56366667  0.54633333  0.99393333  0.00000000
C        C    0.45366667  0.01733333  0.99393333  0.00000000
C        C    0.43633333  0.45366667  0.00606667  0.00000000
C        C    0.10300000  0.78700000  0.33940000  0.00000000
C        C    0.23033333  0.87966667  0.32726667  0.00000000
C        C    0.78700000  0.68400000  0.66060000  0.00000000
C        C    0.76966667  0.12033333  0.67273333  0.00000000
C        C    0.01733333  0.56366667  0.00606667  0.00000000
C        C    0.12033333  0.35066667  0.32726667  0.00000000
H        H    0.65193333  0.75236667  0.32806667  0.00000000
H        H    0.56623333  0.98526667  0.00526667  0.00000000
H        H    0.31860000  0.08570000  0.66140000  0.00000000
H        H    0.34806667  0.24763333  0.67193333  0.00000000
H        H    0.89956667  0.65193333  0.67193333  0.00000000
H        H    0.91430000  0.23290000  0.66140000  0.00000000
H        H    0.23290000  0.31860000  0.33860000  0.00000000
H        H    0.98526667  0.41903333  0.99473333  0.00000000
H        H    0.68140000  0.91430000  0.33860000  0.00000000
H        H    0.58096667  0.56623333  0.99473333  0.00000000
H        H    0.43376667  0.01473333  0.99473333  0.00000000
H        H    0.41903333  0.43376667  0.00526667  0.00000000
H        H    0.08570000  0.76710000  0.33860000  0.00000000
H        H    0.24763333  0.89956667  0.32806667  0.00000000
H        H    0.76710000  0.68140000  0.66140000  0.00000000
H        H    0.75236667  0.10043333  0.67193333  0.00000000
H        H    0.01473333  0.58096667  0.00526667  0.00000000
H        H    0.10043333  0.34806667  0.32806667  0.00000000
C        C    0.63333333  0.76966667  0.32146667  0.00000000
C        C    0.53033333  0.96666667  0.01186667  0.00000000
C        C    0.30000000  0.10300000  0.65480000  0.00000000
C        C    0.36666667  0.23033333  0.67853333  0.00000000
C        C    0.86366667  0.63333333  0.67853333  0.00000000
C        C    0.89700000  0.19700000  0.65480000  0.00000000
C        C    0.19700000  0.30000000  0.34520000  0.00000000
C        C    0.96666667  0.43633333  0.98813333  0.00000000
C        C    0.70000000  0.89700000  0.34520000  0.00000000
C        C    0.56366667  0.53033333  0.98813333  0.00000000
C        C    0.46966667  0.03333333  0.98813333  0.00000000
C        C    0.43633333  0.46966667  0.01186667  0.00000000
C        C    0.10300000  0.80300000  0.34520000  0.00000000
C        C    0.23033333  0.86366667  0.32146667  0.00000000
C        C    0.80300000  0.70000000  0.65480000  0.00000000
C        C    0.76966667  0.13633333  0.67853333  0.00000000
C        C    0.03333333  0.56366667  0.01186667  0.00000000
C        C    0.13633333  0.36666667  0.32146667  0.00000000
C        C    0.62833333  0.79466667  0.32046667  0.00000000
C        C    0.50033333  0.96166667  0.01286667  0.00000000
C        C    0.29500000  0.12800000  0.65380000  0.00000000
C        C    0.37166667  0.20533333  0.67953333  0.00000000
C        C    0.83366667  0.62833333  0.67953333  0.00000000
C        C    0.87200000  0.16700000  0.65380000  0.00000000
C        C    0.16700000  0.29500000  0.34620000  0.00000000
C        C    0.96166667  0.46133333  0.98713333  0.00000000
C        C    0.70500000  0.87200000  0.34620000  0.00000000
C        C    0.53866667  0.50033333  0.98713333  0.00000000
C        C    0.49966667  0.03833333  0.98713333  0.00000000
C        C    0.46133333  0.49966667  0.01286667  0.00000000
C        C    0.12800000  0.83300000  0.34620000  0.00000000
C        C    0.20533333  0.83366667  0.32046667  0.00000000
C        C    0.83300000  0.70500000  0.65380000  0.00000000
C        C    0.79466667  0.16633333  0.67953333  0.00000000
C        C    0.03833333  0.53866667  0.01286667  0.00000000
C        C    0.16633333  0.37166667  0.32046667  0.00000000
H        H    0.61783333  0.79556667  0.31666667  0.00000000
H        H    0.48893333  0.95116667  0.01666667  0.00000000
H        H    0.28450000  0.12890000  0.65000000  0.00000000
H        H    0.38216667  0.20443333  0.68333333  0.00000000
H        H    0.82226667  0.61783333  0.68333333  0.00000000
H        H    0.87110000  0.15560000  0.65000000  0.00000000
H        H    0.15560000  0.28450000  0.35000000  0.00000000
H        H    0.95116667  0.46223333  0.98333333  0.00000000
H        H    0.71550000  0.87110000  0.35000000  0.00000000
H        H    0.53776667  0.48893333  0.98333333  0.00000000
H        H    0.51106667  0.04883333  0.98333333  0.00000000
H        H    0.46223333  0.51106667  0.01666667  0.00000000
H        H    0.12890000  0.84440000  0.35000000  0.00000000
H        H    0.20443333  0.82226667  0.31666667  0.00000000
H        H    0.84440000  0.71550000  0.65000000  0.00000000
H        H    0.79556667  0.17773333  0.68333333  0.00000000
H        H    0.04883333  0.53776667  0.01666667  0.00000000
H        H    0.17773333  0.38216667  0.31666667  0.00000000
C        C    0.64233333  0.81966667  0.32516667  0.00000000
C        C    0.48933333  0.97566667  0.00816667  0.00000000
C        C    0.30900000  0.15300000  0.65850000  0.00000000
C        C    0.35766667  0.18033333  0.67483333  0.00000000
C        C    0.82266667  0.64233333  0.67483333  0.00000000
C        C    0.84700000  0.15600000  0.65850000  0.00000000
C        C    0.15600000  0.30900000  0.34150000  0.00000000
C        C    0.97566667  0.48633333  0.99183333  0.00000000
C        C    0.69100000  0.84700000  0.34150000  0.00000000
C        C    0.51366667  0.48933333  0.99183333  0.00000000
C        C    0.51066667  0.02433333  0.99183333  0.00000000
C        C    0.48633333  0.51066667  0.00816667  0.00000000
C        C    0.15300000  0.84400000  0.34150000  0.00000000
C        C    0.18033333  0.82266667  0.32516667  0.00000000
C        C    0.84400000  0.69100000  0.65850000  0.00000000
C        C    0.81966667  0.17733333  0.67483333  0.00000000
C        C    0.02433333  0.51366667  0.00816667  0.00000000
C        C    0.17733333  0.35766667  0.32516667  0.00000000
H        H    0.63903333  0.83646667  0.32436667  0.00000000
H        H    0.46923333  0.97236667  0.00896667  0.00000000
H        H    0.30570000  0.16980000  0.65770000  0.00000000
H        H    0.36096667  0.16353333  0.67563333  0.00000000
H        H    0.80256667  0.63903333  0.67563333  0.00000000
H        H    0.83020000  0.13590000  0.65770000  0.00000000
H        H    0.13590000  0.30570000  0.34230000  0.00000000
H        H    0.97236667  0.50313333  0.99103333  0.00000000
H        H    0.69430000  0.83020000  0.34230000  0.00000000
H        H    0.49686667  0.46923333  0.99103333  0.00000000
H        H    0.53076667  0.02763333  0.99103333  0.00000000
H        H    0.50313333  0.53076667  0.00896667  0.00000000
H        H    0.16980000  0.86410000  0.34230000  0.00000000
H        H    0.16353333  0.80256667  0.32436667  0.00000000
H        H    0.86410000  0.69430000  0.65770000  0.00000000
H        H    0.83646667  0.19743333  0.67563333  0.00000000
H        H    0.02763333  0.49686667  0.00896667  0.00000000
H        H    0.19743333  0.36096667  0.32436667  0.00000000
C        C    0.65933333  0.81966667  0.33086667  0.00000000
C        C    0.50633333  0.99266667  0.00246667  0.00000000
C        C    0.32600000  0.15300000  0.66420000  0.00000000
C        C    0.34066667  0.18033333  0.66913333  0.00000000
C        C    0.83966667  0.65933333  0.66913333  0.00000000
C        C    0.84700000  0.17300000  0.66420000  0.00000000
C        C    0.17300000  0.32600000  0.33580000  0.00000000
C        C    0.99266667  0.48633333  0.99753333  0.00000000
C        C    0.67400000  0.84700000  0.33580000  0.00000000
C        C    0.51366667  0.50633333  0.99753333  0.00000000
C        C    0.49366667  0.00733333  0.99753333  0.00000000
C        C    0.48633333  0.49366667  0.00246667  0.00000000
C        C    0.15300000  0.82700000  0.33580000  0.00000000
C        C    0.18033333  0.83966667  0.33086667  0.00000000
C        C    0.82700000  0.67400000  0.66420000  0.00000000
C        C    0.81966667  0.16033333  0.66913333  0.00000000
C        C    0.00733333  0.51366667  0.00246667  0.00000000
C        C    0.16033333  0.34066667  0.33086667  0.00000000
C        C    0.62233333  0.74566667  0.31636667  0.00000000
C        C    0.54333333  0.95566667  0.01696667  0.00000000
C        C    0.28900000  0.07900000  0.64970000  0.00000000
C        C    0.37766667  0.25433333  0.68363333  0.00000000
C        C    0.87666667  0.62233333  0.68363333  0.00000000
C        C    0.92100000  0.21000000  0.64970000  0.00000000
C        C    0.21000000  0.28900000  0.35030000  0.00000000
C        C    0.95566667  0.41233333  0.98303333  0.00000000
C        C    0.71100000  0.92100000  0.35030000  0.00000000
C        C    0.58766667  0.54333333  0.98303333  0.00000000
C        C    0.45666667  0.04433333  0.98303333  0.00000000
C        C    0.41233333  0.45666667  0.01696667  0.00000000
C        C    0.07900000  0.79000000  0.35030000  0.00000000
C        C    0.25433333  0.87666667  0.31636667  0.00000000
C        C    0.79000000  0.71100000  0.64970000  0.00000000
C        C    0.74566667  0.12333333  0.68363333  0.00000000
C        C    0.04433333  0.58766667  0.01696667  0.00000000
C        C    0.12333333  0.37766667  0.31636667  0.00000000
C        C    0.38633333  0.29266667  0.56856667  0.00000000
C        C    0.76033333  0.71966667  0.76476667  0.00000000
C        C    0.05300000  0.62600000  0.90190000  0.00000000
C        C    0.61366667  0.70733333  0.43143333  0.00000000
C        C    0.09366667  0.38633333  0.43143333  0.00000000
C        C    0.37400000  0.42700000  0.90190000  0.00000000
C        C    0.42700000  0.05300000  0.09810000  0.00000000
C        C    0.71966667  0.95933333  0.23523333  0.00000000
C        C    0.94700000  0.37400000  0.09810000  0.00000000
C        C    0.04066667  0.76033333  0.23523333  0.00000000
C        C    0.23966667  0.28033333  0.23523333  0.00000000
C        C    0.95933333  0.23966667  0.76476667  0.00000000
C        C    0.62600000  0.57300000  0.09810000  0.00000000
C        C    0.70733333  0.09366667  0.56856667  0.00000000
C        C    0.57300000  0.94700000  0.90190000  0.00000000
C        C    0.29266667  0.90633333  0.43143333  0.00000000
C        C    0.28033333  0.04066667  0.76476667  0.00000000
C        C    0.90633333  0.61366667  0.56856667  0.00000000
C        C    0.21133333  0.87366667  0.39196667  0.00000000
C        C    0.00433333  0.54466667  0.94136667  0.00000000
C        C    0.87800000  0.20700000  0.72530000  0.00000000
C        C    0.78866667  0.12633333  0.60803333  0.00000000
C        C    0.33766667  0.21133333  0.60803333  0.00000000
C        C    0.79300000  0.67100000  0.72530000  0.00000000
C        C    0.67100000  0.87800000  0.27470000  0.00000000
C        C    0.54466667  0.54033333  0.05863333  0.00000000
C        C    0.12200000  0.79300000  0.27470000  0.00000000
C        C    0.45966667  0.00433333  0.05863333  0.00000000
C        C    0.99566667  0.45533333  0.05863333  0.00000000
C        C    0.54033333  0.99566667  0.94136667  0.00000000
C        C    0.20700000  0.32900000  0.27470000  0.00000000
C        C    0.12633333  0.33766667  0.39196667  0.00000000
C        C    0.32900000  0.12200000  0.72530000  0.00000000
C        C    0.87366667  0.66233333  0.60803333  0.00000000
C        C    0.45533333  0.45966667  0.94136667  0.00000000
C        C    0.66233333  0.78866667  0.39196667  0.00000000
H        H    0.21133333  0.88276667  0.38766667  0.00000000
H        H    0.99523333  0.54466667  0.94566667  0.00000000
H        H    0.87800000  0.21610000  0.72100000  0.00000000
H        H    0.78866667  0.11723333  0.61233333  0.00000000
H        H    0.32856667  0.21133333  0.61233333  0.00000000
H        H    0.78390000  0.66190000  0.72100000  0.00000000
H        H    0.66190000  0.87800000  0.27900000  0.00000000
H        H    0.54466667  0.54943333  0.05433333  0.00000000
H        H    0.12200000  0.78390000  0.27900000  0.00000000
H        H    0.45056667  0.99523333  0.05433333  0.00000000
H        H    0.00476667  0.45533333  0.05433333  0.00000000
H        H    0.54943333  0.00476667  0.94566667  0.00000000
H        H    0.21610000  0.33810000  0.27900000  0.00000000
H        H    0.11723333  0.32856667  0.38766667  0.00000000
H        H    0.33810000  0.12200000  0.72100000  0.00000000
H        H    0.88276667  0.67143333  0.61233333  0.00000000
H        H    0.45533333  0.45056667  0.94566667  0.00000000
H        H    0.67143333  0.78866667  0.38766667  0.00000000
