data_MOF-210

_cell_length_a  71.07160600
_cell_length_b  71.07160600
_cell_length_c  71.07160600
_cell_angle_alpha  41.83202996
_cell_angle_beta  41.83202996
_cell_angle_gamma  41.83202996


_symmetry_space_group_name_Hall ' P 1'
_symmetry_space_group_name_H-M  'P 1'
_symmetry_Int_Tables_number     1

loop_
_atom_site_label
_atom_site_type_symbol
_atom_site_fract_x
_atom_site_fract_y
_atom_site_fract_z
_atom_site_charge
Zn       Zn   0.93370000  0.39570000  0.08170000  0.00000000
Zn       Zn   0.60430000  0.91830000  0.06630000  0.00000000
Zn       Zn   0.06630000  0.60430000  0.91830000  0.00000000
Zn       Zn   0.08170000  0.93370000  0.39570000  0.00000000
Zn       Zn   0.39570000  0.08170000  0.93370000  0.00000000
Zn       Zn   0.91830000  0.06630000  0.60430000  0.00000000
Zn       Zn   0.88130000  0.43530000  0.12030000  0.00000000
Zn       Zn   0.56470000  0.87970000  0.11870000  0.00000000
Zn       Zn   0.11870000  0.56470000  0.87970000  0.00000000
Zn       Zn   0.12030000  0.88130000  0.43530000  0.00000000
Zn       Zn   0.43530000  0.12030000  0.88130000  0.00000000
Zn       Zn   0.87970000  0.11870000  0.56470000  0.00000000
Zn       Zn   0.86310000  0.42410000  0.10110000  0.00000000
Zn       Zn   0.57590000  0.89890000  0.13690000  0.00000000
Zn       Zn   0.13690000  0.57590000  0.89890000  0.00000000
Zn       Zn   0.10110000  0.86310000  0.42410000  0.00000000
Zn       Zn   0.42410000  0.10110000  0.86310000  0.00000000
Zn       Zn   0.89890000  0.13690000  0.57590000  0.00000000
Zn       Zn   0.88910000  0.36810000  0.15210000  0.00000000
Zn       Zn   0.63190000  0.84790000  0.11090000  0.00000000
Zn       Zn   0.11090000  0.63190000  0.84790000  0.00000000
Zn       Zn   0.15210000  0.88910000  0.36810000  0.00000000
Zn       Zn   0.36810000  0.15210000  0.88910000  0.00000000
Zn       Zn   0.84790000  0.11090000  0.63190000  0.00000000
Zn       Zn   0.02960000  0.50660000  0.21960000  0.00000000
Zn       Zn   0.49340000  0.78040000  0.97040000  0.00000000
Zn       Zn   0.97040000  0.49340000  0.78040000  0.00000000
Zn       Zn   0.21960000  0.02960000  0.50660000  0.00000000
Zn       Zn   0.50660000  0.21960000  0.02960000  0.00000000
Zn       Zn   0.78040000  0.97040000  0.49340000  0.00000000
Zn       Zn   0.97200000  0.53400000  0.26600000  0.00000000
Zn       Zn   0.46600000  0.73400000  0.02800000  0.00000000
Zn       Zn   0.02800000  0.46600000  0.73400000  0.00000000
Zn       Zn   0.26600000  0.97200000  0.53400000  0.00000000
Zn       Zn   0.53400000  0.26600000  0.97200000  0.00000000
Zn       Zn   0.73400000  0.02800000  0.46600000  0.00000000
Zn       Zn   0.99270000  0.46970000  0.28170000  0.00000000
Zn       Zn   0.53030000  0.71830000  0.00730000  0.00000000
Zn       Zn   0.00730000  0.53030000  0.71830000  0.00000000
Zn       Zn   0.28170000  0.99270000  0.46970000  0.00000000
Zn       Zn   0.46970000  0.28170000  0.99270000  0.00000000
Zn       Zn   0.71830000  0.00730000  0.53030000  0.00000000
Zn       Zn   0.96700000  0.52600000  0.23400000  0.00000000
Zn       Zn   0.47400000  0.76600000  0.03300000  0.00000000
Zn       Zn   0.03300000  0.47400000  0.76600000  0.00000000
Zn       Zn   0.23400000  0.96700000  0.52600000  0.00000000
Zn       Zn   0.52600000  0.23400000  0.96700000  0.00000000
Zn       Zn   0.76600000  0.03300000  0.47400000  0.00000000
Zn       Zn   0.61800000  0.38100000  0.06500000  0.00000000
Zn       Zn   0.61900000  0.93500000  0.38200000  0.00000000
Zn       Zn   0.38200000  0.61900000  0.93500000  0.00000000
Zn       Zn   0.06500000  0.61800000  0.38100000  0.00000000
Zn       Zn   0.38100000  0.06500000  0.61800000  0.00000000
Zn       Zn   0.93500000  0.38200000  0.61900000  0.00000000
Zn       Zn   0.56840000  0.41740000  0.10340000  0.00000000
Zn       Zn   0.58260000  0.89660000  0.43160000  0.00000000
Zn       Zn   0.43160000  0.58260000  0.89660000  0.00000000
Zn       Zn   0.10340000  0.56840000  0.41740000  0.00000000
Zn       Zn   0.41740000  0.10340000  0.56840000  0.00000000
Zn       Zn   0.89660000  0.43160000  0.58260000  0.00000000
Zn       Zn   0.61170000  0.34870000  0.12970000  0.00000000
Zn       Zn   0.65130000  0.87030000  0.38830000  0.00000000
Zn       Zn   0.38830000  0.65130000  0.87030000  0.00000000
Zn       Zn   0.12970000  0.61170000  0.34870000  0.00000000
Zn       Zn   0.34870000  0.12970000  0.61170000  0.00000000
Zn       Zn   0.87030000  0.38830000  0.65130000  0.00000000
Zn       Zn   0.63660000  0.39860000  0.07560000  0.00000000
Zn       Zn   0.60140000  0.92440000  0.36340000  0.00000000
Zn       Zn   0.36340000  0.60140000  0.92440000  0.00000000
Zn       Zn   0.07560000  0.63660000  0.39860000  0.00000000
Zn       Zn   0.39860000  0.07560000  0.63660000  0.00000000
Zn       Zn   0.92440000  0.36340000  0.60140000  0.00000000
O        O    0.89210000  0.40560000  0.11370000  0.00000000
O        O    0.59440000  0.88630000  0.10790000  0.00000000
O        O    0.10790000  0.59440000  0.88630000  0.00000000
O        O    0.11370000  0.89210000  0.40560000  0.00000000
O        O    0.40560000  0.11370000  0.89210000  0.00000000
O        O    0.88630000  0.10790000  0.59440000  0.00000000
O        O    0.99030000  0.50910000  0.25040000  0.00000000
O        O    0.49090000  0.74960000  0.00970000  0.00000000
O        O    0.00970000  0.49090000  0.74960000  0.00000000
O        O    0.25040000  0.99030000  0.50910000  0.00000000
O        O    0.50910000  0.25040000  0.99030000  0.00000000
O        O    0.74960000  0.00970000  0.49090000  0.00000000
O        O    0.60880000  0.38650000  0.09330000  0.00000000
O        O    0.61350000  0.90670000  0.39120000  0.00000000
O        O    0.39120000  0.61350000  0.90670000  0.00000000
O        O    0.09330000  0.60880000  0.38650000  0.00000000
O        O    0.38650000  0.09330000  0.60880000  0.00000000
O        O    0.90670000  0.39120000  0.61350000  0.00000000
O        O    0.93340000  0.40640000  0.04940000  0.00000000
O        O    0.59360000  0.95060000  0.06660000  0.00000000
O        O    0.06660000  0.59360000  0.95060000  0.00000000
O        O    0.04940000  0.93340000  0.40640000  0.00000000
O        O    0.40640000  0.04940000  0.93340000  0.00000000
O        O    0.95060000  0.06660000  0.59360000  0.00000000
O        O    0.87860000  0.37160000  0.18160000  0.00000000
O        O    0.62840000  0.81840000  0.12140000  0.00000000
O        O    0.12140000  0.62840000  0.81840000  0.00000000
O        O    0.18160000  0.87860000  0.37160000  0.00000000
O        O    0.37160000  0.18160000  0.87860000  0.00000000
O        O    0.81840000  0.12140000  0.62840000  0.00000000
O        O    0.87400000  0.41900000  0.15800000  0.00000000
O        O    0.58100000  0.84200000  0.12600000  0.00000000
O        O    0.12600000  0.58100000  0.84200000  0.00000000
O        O    0.15800000  0.87400000  0.41900000  0.00000000
O        O    0.41900000  0.15800000  0.87400000  0.00000000
O        O    0.84200000  0.12600000  0.58100000  0.00000000
O        O    0.88420000  0.42820000  0.06120000  0.00000000
O        O    0.57180000  0.93880000  0.11580000  0.00000000
O        O    0.11580000  0.57180000  0.93880000  0.00000000
O        O    0.06120000  0.88420000  0.42820000  0.00000000
O        O    0.42820000  0.06120000  0.88420000  0.00000000
O        O    0.93880000  0.11580000  0.57180000  0.00000000
O        O    0.86160000  0.36160000  0.16360000  0.00000000
O        O    0.63840000  0.83640000  0.13840000  0.00000000
O        O    0.13840000  0.63840000  0.83640000  0.00000000
O        O    0.16360000  0.86160000  0.36160000  0.00000000
O        O    0.36160000  0.16360000  0.86160000  0.00000000
O        O    0.83640000  0.13840000  0.63840000  0.00000000
O        O    0.95030000  0.41730000  0.06630000  0.00000000
O        O    0.58270000  0.93370000  0.04970000  0.00000000
O        O    0.04970000  0.58270000  0.93370000  0.00000000
O        O    0.06630000  0.95030000  0.41730000  0.00000000
O        O    0.41730000  0.06630000  0.95030000  0.00000000
O        O    0.93370000  0.04970000  0.58270000  0.00000000
O        O    0.95810000  0.35510000  0.09610000  0.00000000
O        O    0.64490000  0.90390000  0.04190000  0.00000000
O        O    0.04190000  0.64490000  0.90390000  0.00000000
O        O    0.09610000  0.95810000  0.35510000  0.00000000
O        O    0.35510000  0.09610000  0.95810000  0.00000000
O        O    0.90390000  0.04190000  0.64490000  0.00000000
O        O    0.92560000  0.33560000  0.14660000  0.00000000
O        O    0.66440000  0.85340000  0.07440000  0.00000000
O        O    0.07440000  0.66440000  0.85340000  0.00000000
O        O    0.14660000  0.92560000  0.33560000  0.00000000
O        O    0.33560000  0.14660000  0.92560000  0.00000000
O        O    0.85340000  0.07440000  0.66440000  0.00000000
O        O    0.88520000  0.15220000  0.53120000  0.00000000
O        O    0.84780000  0.46880000  0.11480000  0.00000000
O        O    0.11480000  0.84780000  0.46880000  0.00000000
O        O    0.53120000  0.88520000  0.15220000  0.00000000
O        O    0.15220000  0.53120000  0.88520000  0.00000000
O        O    0.46880000  0.11480000  0.84780000  0.00000000
O        O    0.95060000  0.50260000  0.25460000  0.00000000
O        O    0.49740000  0.74540000  0.04940000  0.00000000
O        O    0.04940000  0.49740000  0.74540000  0.00000000
O        O    0.25460000  0.95060000  0.50260000  0.00000000
O        O    0.50260000  0.25460000  0.95060000  0.00000000
O        O    0.74540000  0.04940000  0.49740000  0.00000000
O        O    0.97060000  0.46060000  0.28860000  0.00000000
O        O    0.53940000  0.71140000  0.02940000  0.00000000
O        O    0.02940000  0.53940000  0.71140000  0.00000000
O        O    0.28860000  0.97060000  0.46060000  0.00000000
O        O    0.46060000  0.28860000  0.97060000  0.00000000
O        O    0.71140000  0.02940000  0.53940000  0.00000000
O        O    0.76330000  0.06530000  0.43730000  0.00000000
O        O    0.93470000  0.56270000  0.23670000  0.00000000
O        O    0.23670000  0.93470000  0.56270000  0.00000000
O        O    0.43730000  0.76330000  0.06530000  0.00000000
O        O    0.06530000  0.43730000  0.76330000  0.00000000
O        O    0.56270000  0.23670000  0.93470000  0.00000000
O        O    0.73740000  0.06240000  0.43340000  0.00000000
O        O    0.93760000  0.56660000  0.26260000  0.00000000
O        O    0.26260000  0.93760000  0.56660000  0.00000000
O        O    0.43340000  0.73740000  0.06240000  0.00000000
O        O    0.06240000  0.43340000  0.73740000  0.00000000
O        O    0.56660000  0.26260000  0.93760000  0.00000000
O        O    0.01110000  0.46610000  0.80610000  0.00000000
O        O    0.53390000  0.19390000  0.98890000  0.00000000
O        O    0.98890000  0.53390000  0.19390000  0.00000000
O        O    0.80610000  0.01110000  0.46610000  0.00000000
O        O    0.46610000  0.80610000  0.01110000  0.00000000
O        O    0.19390000  0.98890000  0.53390000  0.00000000
O        O    0.96410000  0.48010000  0.81810000  0.00000000
O        O    0.51990000  0.18190000  0.03590000  0.00000000
O        O    0.03590000  0.51990000  0.18190000  0.00000000
O        O    0.81810000  0.96410000  0.48010000  0.00000000
O        O    0.48010000  0.81810000  0.96410000  0.00000000
O        O    0.18190000  0.03590000  0.51990000  0.00000000
O        O    0.69270000  0.03570000  0.48770000  0.00000000
O        O    0.96430000  0.51230000  0.30730000  0.00000000
O        O    0.30730000  0.96430000  0.51230000  0.00000000
O        O    0.48770000  0.69270000  0.03570000  0.00000000
O        O    0.03570000  0.48770000  0.69270000  0.00000000
O        O    0.51230000  0.30730000  0.96430000  0.00000000
O        O    0.68160000  0.02060000  0.53460000  0.00000000
O        O    0.97940000  0.46540000  0.31840000  0.00000000
O        O    0.31840000  0.97940000  0.46540000  0.00000000
O        O    0.53460000  0.68160000  0.02060000  0.00000000
O        O    0.02060000  0.53460000  0.68160000  0.00000000
O        O    0.46540000  0.31840000  0.97940000  0.00000000
O        O    0.91940000  0.37440000  0.65740000  0.00000000
O        O    0.62560000  0.34260000  0.08060000  0.00000000
O        O    0.08060000  0.62560000  0.34260000  0.00000000
O        O    0.65740000  0.91940000  0.37440000  0.00000000
O        O    0.37440000  0.65740000  0.91940000  0.00000000
O        O    0.34260000  0.08060000  0.62560000  0.00000000
O        O    0.87320000  0.37820000  0.68120000  0.00000000
O        O    0.62180000  0.31880000  0.12680000  0.00000000
O        O    0.12680000  0.62180000  0.31880000  0.00000000
O        O    0.68120000  0.87320000  0.37820000  0.00000000
O        O    0.37820000  0.68120000  0.87320000  0.00000000
O        O    0.31880000  0.12680000  0.62180000  0.00000000
O        O    0.57540000  0.35340000  0.16340000  0.00000000
O        O    0.64660000  0.83660000  0.42460000  0.00000000
O        O    0.42460000  0.64660000  0.83660000  0.00000000
O        O    0.16340000  0.57540000  0.35340000  0.00000000
O        O    0.35340000  0.16340000  0.57540000  0.00000000
O        O    0.83660000  0.42460000  0.64660000  0.00000000
O        O    0.89860000  0.16560000  0.53860000  0.00000000
O        O    0.83440000  0.46140000  0.10140000  0.00000000
O        O    0.10140000  0.83440000  0.46140000  0.00000000
O        O    0.53860000  0.89860000  0.16560000  0.00000000
O        O    0.16560000  0.53860000  0.89860000  0.00000000
O        O    0.46140000  0.10140000  0.83440000  0.00000000
O        O    0.84460000  0.40060000  0.12660000  0.00000000
O        O    0.59940000  0.87340000  0.15540000  0.00000000
O        O    0.15540000  0.59940000  0.87340000  0.00000000
O        O    0.12660000  0.84460000  0.40060000  0.00000000
O        O    0.40060000  0.12660000  0.84460000  0.00000000
O        O    0.87340000  0.15540000  0.59940000  0.00000000
O        O    0.64000000  0.33500000  0.13700000  0.00000000
O        O    0.66500000  0.86300000  0.36000000  0.00000000
O        O    0.36000000  0.66500000  0.86300000  0.00000000
O        O    0.13700000  0.64000000  0.33500000  0.00000000
O        O    0.33500000  0.13700000  0.64000000  0.00000000
O        O    0.86300000  0.36000000  0.66500000  0.00000000
O        O    0.65720000  0.37220000  0.09820000  0.00000000
O        O    0.62780000  0.90180000  0.34280000  0.00000000
O        O    0.34280000  0.62780000  0.90180000  0.00000000
O        O    0.09820000  0.65720000  0.37220000  0.00000000
O        O    0.37220000  0.09820000  0.65720000  0.00000000
O        O    0.90180000  0.34280000  0.62780000  0.00000000
O        O    0.66490000  0.39990000  0.03790000  0.00000000
O        O    0.60010000  0.96210000  0.33510000  0.00000000
O        O    0.33510000  0.60010000  0.96210000  0.00000000
O        O    0.03790000  0.66490000  0.39990000  0.00000000
O        O    0.39990000  0.03790000  0.66490000  0.00000000
O        O    0.96210000  0.33510000  0.60010000  0.00000000
O        O    0.00360000  0.45060000  0.75260000  0.00000000
O        O    0.54940000  0.24740000  0.99640000  0.00000000
O        O    0.99640000  0.54940000  0.24740000  0.00000000
O        O    0.75260000  0.00360000  0.45060000  0.00000000
O        O    0.45060000  0.75260000  0.00360000  0.00000000
O        O    0.24740000  0.99640000  0.54940000  0.00000000
O        O    0.96050000  0.47050000  0.78750000  0.00000000
O        O    0.52950000  0.21250000  0.03950000  0.00000000
O        O    0.03950000  0.52950000  0.21250000  0.00000000
O        O    0.78750000  0.96050000  0.47050000  0.00000000
O        O    0.47050000  0.78750000  0.96050000  0.00000000
O        O    0.21250000  0.03950000  0.52950000  0.00000000
O        O    0.65150000  0.38650000  0.03050000  0.00000000
O        O    0.61350000  0.96950000  0.34850000  0.00000000
O        O    0.34850000  0.61350000  0.96950000  0.00000000
O        O    0.03050000  0.65150000  0.38650000  0.00000000
O        O    0.38650000  0.03050000  0.65150000  0.00000000
O        O    0.96950000  0.34850000  0.61350000  0.00000000
O        O    0.94010000  0.53210000  0.77210000  0.00000000
O        O    0.46790000  0.22790000  0.05990000  0.00000000
O        O    0.05990000  0.46790000  0.22790000  0.00000000
O        O    0.77210000  0.94010000  0.53210000  0.00000000
O        O    0.53210000  0.77210000  0.94010000  0.00000000
O        O    0.22790000  0.05990000  0.46790000  0.00000000
O        O    0.96830000  0.55930000  0.72630000  0.00000000
O        O    0.44070000  0.27370000  0.03170000  0.00000000
O        O    0.03170000  0.44070000  0.27370000  0.00000000
O        O    0.72630000  0.96830000  0.55930000  0.00000000
O        O    0.55930000  0.72630000  0.96830000  0.00000000
O        O    0.27370000  0.03170000  0.44070000  0.00000000
O        O    0.54390000  0.40290000  0.14390000  0.00000000
O        O    0.59710000  0.85610000  0.45610000  0.00000000
O        O    0.45610000  0.59710000  0.85610000  0.00000000
O        O    0.14390000  0.54390000  0.40290000  0.00000000
O        O    0.40290000  0.14390000  0.54390000  0.00000000
O        O    0.85610000  0.45610000  0.59710000  0.00000000
O        O    0.45070000  0.09370000  0.56670000  0.00000000
O        O    0.90630000  0.43330000  0.54930000  0.00000000
O        O    0.54930000  0.90630000  0.43330000  0.00000000
O        O    0.56670000  0.45070000  0.09370000  0.00000000
O        O    0.09370000  0.56670000  0.45070000  0.00000000
O        O    0.43330000  0.54930000  0.90630000  0.00000000
O        O    0.43790000  0.07190000  0.61690000  0.00000000
O        O    0.92810000  0.38310000  0.56210000  0.00000000
O        O    0.56210000  0.92810000  0.38310000  0.00000000
O        O    0.61690000  0.43790000  0.07190000  0.00000000
O        O    0.07190000  0.61690000  0.43790000  0.00000000
O        O    0.38310000  0.56210000  0.92810000  0.00000000
O        O    0.91220000  0.44620000  0.09320000  0.00000000
O        O    0.55380000  0.90680000  0.08780000  0.00000000
O        O    0.08780000  0.55380000  0.90680000  0.00000000
O        O    0.09320000  0.91220000  0.44620000  0.00000000
O        O    0.44620000  0.09320000  0.91220000  0.00000000
O        O    0.90680000  0.08780000  0.55380000  0.00000000
O        O    0.91850000  0.44950000  0.56550000  0.00000000
O        O    0.55050000  0.43450000  0.08150000  0.00000000
O        O    0.08150000  0.55050000  0.43450000  0.00000000
O        O    0.56550000  0.91850000  0.44950000  0.00000000
O        O    0.44950000  0.56550000  0.91850000  0.00000000
O        O    0.43450000  0.08150000  0.55050000  0.00000000
O        O    0.94640000  0.41240000  0.59240000  0.00000000
O        O    0.58760000  0.40760000  0.05360000  0.00000000
O        O    0.05360000  0.58760000  0.40760000  0.00000000
O        O    0.59240000  0.94640000  0.41240000  0.00000000
O        O    0.41240000  0.59240000  0.94640000  0.00000000
O        O    0.40760000  0.05360000  0.58760000  0.00000000
C        C    0.91270000  0.41970000  0.04270000  0.00000000
C        C    0.58030000  0.95730000  0.08730000  0.00000000
C        C    0.08730000  0.58030000  0.95730000  0.00000000
C        C    0.04270000  0.91270000  0.41970000  0.00000000
C        C    0.41970000  0.04270000  0.91270000  0.00000000
C        C    0.95730000  0.08730000  0.58030000  0.00000000
C        C    0.93940000  0.43840000  0.07140000  0.00000000
C        C    0.56160000  0.92860000  0.06060000  0.00000000
C        C    0.06060000  0.56160000  0.92860000  0.00000000
C        C    0.07140000  0.93940000  0.43840000  0.00000000
C        C    0.43840000  0.07140000  0.93940000  0.00000000
C        C    0.92860000  0.06060000  0.56160000  0.00000000
C        C    0.95260000  0.33260000  0.12260000  0.00000000
C        C    0.66740000  0.87740000  0.04740000  0.00000000
C        C    0.04740000  0.66740000  0.87740000  0.00000000
C        C    0.12260000  0.95260000  0.33260000  0.00000000
C        C    0.33260000  0.12260000  0.95260000  0.00000000
C        C    0.87740000  0.04740000  0.66740000  0.00000000
C        C    0.93830000  0.46130000  0.28630000  0.00000000
C        C    0.53870000  0.71370000  0.06170000  0.00000000
C        C    0.06170000  0.53870000  0.71370000  0.00000000
C        C    0.28630000  0.93830000  0.46130000  0.00000000
C        C    0.46130000  0.28630000  0.93830000  0.00000000
C        C    0.71370000  0.06170000  0.53870000  0.00000000
C        C    0.75090000  0.07590000  0.42290000  0.00000000
C        C    0.92410000  0.57710000  0.24910000  0.00000000
C        C    0.24910000  0.92410000  0.57710000  0.00000000
C        C    0.42290000  0.75090000  0.07590000  0.00000000
C        C    0.07590000  0.42290000  0.75090000  0.00000000
C        C    0.57710000  0.24910000  0.92410000  0.00000000
C        C    0.98350000  0.46950000  0.82550000  0.00000000
C        C    0.53050000  0.17450000  0.01650000  0.00000000
C        C    0.01650000  0.53050000  0.17450000  0.00000000
C        C    0.82550000  0.98350000  0.46950000  0.00000000
C        C    0.46950000  0.82550000  0.98350000  0.00000000
C        C    0.17450000  0.01650000  0.53050000  0.00000000
C        C    0.67100000  0.39300000  0.02100000  0.00000000
C        C    0.60700000  0.97900000  0.32900000  0.00000000
C        C    0.32900000  0.60700000  0.97900000  0.00000000
C        C    0.02100000  0.67100000  0.39300000  0.00000000
C        C    0.39300000  0.02100000  0.67100000  0.00000000
C        C    0.97900000  0.32900000  0.60700000  0.00000000
C        C    0.89460000  0.37260000  0.68160000  0.00000000
C        C    0.62740000  0.31840000  0.10540000  0.00000000
C        C    0.10540000  0.62740000  0.31840000  0.00000000
C        C    0.68160000  0.89460000  0.37260000  0.00000000
C        C    0.37260000  0.68160000  0.89460000  0.00000000
C        C    0.31840000  0.10540000  0.62740000  0.00000000
C        C    0.54840000  0.37640000  0.16740000  0.00000000
C        C    0.62360000  0.83260000  0.45160000  0.00000000
C        C    0.45160000  0.62360000  0.83260000  0.00000000
C        C    0.16740000  0.54840000  0.37640000  0.00000000
C        C    0.37640000  0.16740000  0.54840000  0.00000000
C        C    0.83260000  0.45160000  0.62360000  0.00000000
C        C    0.87310000  0.39310000  0.18210000  0.00000000
C        C    0.60690000  0.81790000  0.12690000  0.00000000
C        C    0.12690000  0.60690000  0.81790000  0.00000000
C        C    0.18210000  0.87310000  0.39310000  0.00000000
C        C    0.39310000  0.18210000  0.87310000  0.00000000
C        C    0.81790000  0.12690000  0.60690000  0.00000000
C        C    0.86460000  0.38960000  0.21060000  0.00000000
C        C    0.61040000  0.78940000  0.13540000  0.00000000
C        C    0.13540000  0.61040000  0.78940000  0.00000000
C        C    0.21060000  0.86460000  0.38960000  0.00000000
C        C    0.38960000  0.21060000  0.86460000  0.00000000
C        C    0.78940000  0.13540000  0.61040000  0.00000000
C        C    0.87020000  0.35620000  0.25820000  0.00000000
C        C    0.64380000  0.74180000  0.12980000  0.00000000
C        C    0.12980000  0.64380000  0.74180000  0.00000000
C        C    0.25820000  0.87020000  0.35620000  0.00000000
C        C    0.35620000  0.25820000  0.87020000  0.00000000
C        C    0.74180000  0.12980000  0.64380000  0.00000000
H        H    0.87570000  0.33620000  0.27450000  0.00000000
H        H    0.66380000  0.72550000  0.12430000  0.00000000
H        H    0.12430000  0.66380000  0.72550000  0.00000000
H        H    0.27450000  0.87570000  0.33620000  0.00000000
H        H    0.33620000  0.27450000  0.87570000  0.00000000
H        H    0.72550000  0.12430000  0.66380000  0.00000000
C        C    0.87340000  0.35940000  0.23440000  0.00000000
C        C    0.64060000  0.76560000  0.12660000  0.00000000
C        C    0.12660000  0.64060000  0.76560000  0.00000000
C        C    0.23440000  0.87340000  0.35940000  0.00000000
C        C    0.35940000  0.23440000  0.87340000  0.00000000
C        C    0.76560000  0.12660000  0.64060000  0.00000000
H        H    0.88180000  0.34150000  0.23340000  0.00000000
H        H    0.65850000  0.76660000  0.11820000  0.00000000
H        H    0.11820000  0.65850000  0.76660000  0.00000000
H        H    0.23340000  0.88180000  0.34150000  0.00000000
H        H    0.34150000  0.23340000  0.88180000  0.00000000
H        H    0.76660000  0.11820000  0.65850000  0.00000000
C        C    0.86280000  0.37280000  0.31980000  0.00000000
C        C    0.62720000  0.68020000  0.13720000  0.00000000
C        C    0.13720000  0.62720000  0.68020000  0.00000000
C        C    0.31980000  0.86280000  0.37280000  0.00000000
C        C    0.37280000  0.31980000  0.86280000  0.00000000
C        C    0.68020000  0.13720000  0.62720000  0.00000000
C        C    0.86880000  0.39380000  0.31080000  0.00000000
C        C    0.60620000  0.68920000  0.13120000  0.00000000
C        C    0.13120000  0.60620000  0.68920000  0.00000000
C        C    0.31080000  0.86880000  0.39380000  0.00000000
C        C    0.39380000  0.31080000  0.86880000  0.00000000
C        C    0.68920000  0.13120000  0.60620000  0.00000000
H        H    0.86880000  0.41230000  0.29170000  0.00000000
H        H    0.58770000  0.70830000  0.13120000  0.00000000
H        H    0.13120000  0.58770000  0.70830000  0.00000000
H        H    0.29170000  0.86880000  0.41230000  0.00000000
H        H    0.41230000  0.29170000  0.86880000  0.00000000
H        H    0.70830000  0.13120000  0.58770000  0.00000000
C        C    0.87630000  0.38730000  0.32930000  0.00000000
C        C    0.61270000  0.67070000  0.12370000  0.00000000
C        C    0.12370000  0.61270000  0.67070000  0.00000000
C        C    0.32930000  0.87630000  0.38730000  0.00000000
C        C    0.38730000  0.32930000  0.87630000  0.00000000
C        C    0.67070000  0.12370000  0.61270000  0.00000000
C        C    0.87560000  0.36060000  0.35760000  0.00000000
C        C    0.63940000  0.64240000  0.12440000  0.00000000
C        C    0.12440000  0.63940000  0.64240000  0.00000000
C        C    0.35760000  0.87560000  0.36060000  0.00000000
C        C    0.36060000  0.35760000  0.87560000  0.00000000
C        C    0.64240000  0.12440000  0.63940000  0.00000000
H        H    0.88090000  0.35600000  0.37010000  0.00000000
H        H    0.64400000  0.62990000  0.11910000  0.00000000
H        H    0.11910000  0.64400000  0.62990000  0.00000000
H        H    0.37010000  0.88090000  0.35600000  0.00000000
H        H    0.35600000  0.37010000  0.88090000  0.00000000
H        H    0.62990000  0.11910000  0.64400000  0.00000000
C        C    0.86960000  0.33960000  0.36660000  0.00000000
C        C    0.66040000  0.63340000  0.13040000  0.00000000
C        C    0.13040000  0.66040000  0.63340000  0.00000000
C        C    0.36660000  0.86960000  0.33960000  0.00000000
C        C    0.33960000  0.36660000  0.86960000  0.00000000
C        C    0.63340000  0.13040000  0.66040000  0.00000000
C        C    0.86220000  0.34620000  0.34820000  0.00000000
C        C    0.65380000  0.65180000  0.13780000  0.00000000
C        C    0.13780000  0.65380000  0.65180000  0.00000000
C        C    0.34820000  0.86220000  0.34620000  0.00000000
C        C    0.34620000  0.34820000  0.86220000  0.00000000
C        C    0.65180000  0.13780000  0.65380000  0.00000000
H        H    0.85840000  0.33170000  0.35420000  0.00000000
H        H    0.66830000  0.64580000  0.14160000  0.00000000
H        H    0.14160000  0.66830000  0.64580000  0.00000000
H        H    0.35420000  0.85840000  0.33170000  0.00000000
H        H    0.33170000  0.35420000  0.85840000  0.00000000
H        H    0.64580000  0.14160000  0.66830000  0.00000000
C        C    0.88400000  0.25600000  0.44000000  0.00000000
C        C    0.74400000  0.56000000  0.11600000  0.00000000
C        C    0.11600000  0.74400000  0.56000000  0.00000000
C        C    0.44000000  0.88400000  0.25600000  0.00000000
C        C    0.25600000  0.44000000  0.88400000  0.00000000
C        C    0.56000000  0.11600000  0.74400000  0.00000000
C        C    0.87900000  0.23400000  0.44900000  0.00000000
C        C    0.76600000  0.55100000  0.12100000  0.00000000
C        C    0.12100000  0.76600000  0.55100000  0.00000000
C        C    0.44900000  0.87900000  0.23400000  0.00000000
C        C    0.23400000  0.44900000  0.87900000  0.00000000
C        C    0.55100000  0.12100000  0.76600000  0.00000000
H        H    0.87420000  0.23780000  0.43680000  0.00000000
H        H    0.76220000  0.56320000  0.12580000  0.00000000
H        H    0.12580000  0.76220000  0.56320000  0.00000000
H        H    0.43680000  0.87420000  0.23780000  0.00000000
H        H    0.23780000  0.43680000  0.87420000  0.00000000
H        H    0.56320000  0.12580000  0.76220000  0.00000000
C        C    0.88360000  0.20560000  0.47460000  0.00000000
C        C    0.79440000  0.52540000  0.11640000  0.00000000
C        C    0.11640000  0.79440000  0.52540000  0.00000000
C        C    0.47460000  0.88360000  0.20560000  0.00000000
C        C    0.20560000  0.47460000  0.88360000  0.00000000
C        C    0.52540000  0.11640000  0.79440000  0.00000000
H        H    0.88080000  0.19010000  0.48060000  0.00000000
H        H    0.80990000  0.51940000  0.11920000  0.00000000
H        H    0.11920000  0.80990000  0.51940000  0.00000000
H        H    0.48060000  0.88080000  0.19010000  0.00000000
H        H    0.19010000  0.48060000  0.88080000  0.00000000
H        H    0.51940000  0.11920000  0.80990000  0.00000000
C        C    0.89110000  0.19910000  0.49310000  0.00000000
C        C    0.80090000  0.50690000  0.10890000  0.00000000
C        C    0.10890000  0.80090000  0.50690000  0.00000000
C        C    0.49310000  0.89110000  0.19910000  0.00000000
C        C    0.19910000  0.49310000  0.89110000  0.00000000
C        C    0.50690000  0.10890000  0.80090000  0.00000000
C        C    0.89700000  0.22100000  0.48300000  0.00000000
C        C    0.77900000  0.51700000  0.10300000  0.00000000
C        C    0.10300000  0.77900000  0.51700000  0.00000000
C        C    0.48300000  0.89700000  0.22100000  0.00000000
C        C    0.22100000  0.48300000  0.89700000  0.00000000
C        C    0.51700000  0.10300000  0.77900000  0.00000000
H        H    0.90250000  0.21690000  0.49510000  0.00000000
H        H    0.78310000  0.50490000  0.09750000  0.00000000
H        H    0.09750000  0.78310000  0.50490000  0.00000000
H        H    0.49510000  0.90250000  0.21690000  0.00000000
H        H    0.21690000  0.49510000  0.90250000  0.00000000
H        H    0.50490000  0.09750000  0.78310000  0.00000000
C        C    0.89250000  0.24950000  0.45750000  0.00000000
C        C    0.75050000  0.54250000  0.10750000  0.00000000
C        C    0.10750000  0.75050000  0.54250000  0.00000000
C        C    0.45750000  0.89250000  0.24950000  0.00000000
C        C    0.24950000  0.45750000  0.89250000  0.00000000
C        C    0.54250000  0.10750000  0.75050000  0.00000000
H        H    0.89570000  0.26460000  0.45120000  0.00000000
H        H    0.73540000  0.54880000  0.10430000  0.00000000
H        H    0.10430000  0.73540000  0.54880000  0.00000000
H        H    0.45120000  0.89570000  0.26460000  0.00000000
H        H    0.26460000  0.45120000  0.89570000  0.00000000
H        H    0.54880000  0.10430000  0.73540000  0.00000000
C        C    0.89200000  0.17100000  0.52300000  0.00000000
C        C    0.82900000  0.47700000  0.10800000  0.00000000
C        C    0.10800000  0.82900000  0.47700000  0.00000000
C        C    0.52300000  0.89200000  0.17100000  0.00000000
C        C    0.17100000  0.52300000  0.89200000  0.00000000
C        C    0.47700000  0.10800000  0.82900000  0.00000000
C        C    0.90960000  0.43460000  0.30360000  0.00000000
C        C    0.56540000  0.69640000  0.09040000  0.00000000
C        C    0.09040000  0.56540000  0.69640000  0.00000000
C        C    0.30360000  0.90960000  0.43460000  0.00000000
C        C    0.43460000  0.30360000  0.90960000  0.00000000
C        C    0.69640000  0.09040000  0.56540000  0.00000000
C        C    0.92010000  0.47810000  0.27210000  0.00000000
C        C    0.52190000  0.72790000  0.07990000  0.00000000
C        C    0.07990000  0.52190000  0.72790000  0.00000000
C        C    0.27210000  0.92010000  0.47810000  0.00000000
C        C    0.47810000  0.27210000  0.92010000  0.00000000
C        C    0.72790000  0.07990000  0.52190000  0.00000000
H        H    0.91660000  0.49920000  0.25690000  0.00000000
H        H    0.50080000  0.74310000  0.08340000  0.00000000
H        H    0.08340000  0.50080000  0.74310000  0.00000000
H        H    0.25690000  0.91660000  0.49920000  0.00000000
H        H    0.49920000  0.25690000  0.91660000  0.00000000
H        H    0.74310000  0.08340000  0.50080000  0.00000000
C        C    0.90580000  0.46480000  0.28080000  0.00000000
C        C    0.53520000  0.71920000  0.09420000  0.00000000
C        C    0.09420000  0.53520000  0.71920000  0.00000000
C        C    0.28080000  0.90580000  0.46480000  0.00000000
C        C    0.46480000  0.28080000  0.90580000  0.00000000
C        C    0.71920000  0.09420000  0.53520000  0.00000000
H        H    0.89290000  0.47660000  0.27140000  0.00000000
H        H    0.52340000  0.72860000  0.10710000  0.00000000
H        H    0.10710000  0.52340000  0.72860000  0.00000000
H        H    0.27140000  0.89290000  0.47660000  0.00000000
H        H    0.47660000  0.27140000  0.89290000  0.00000000
H        H    0.72860000  0.10710000  0.52340000  0.00000000
C        C    0.85050000  0.41550000  0.21350000  0.00000000
C        C    0.58450000  0.78650000  0.14950000  0.00000000
C        C    0.14950000  0.58450000  0.78650000  0.00000000
C        C    0.21350000  0.85050000  0.41550000  0.00000000
C        C    0.41550000  0.21350000  0.85050000  0.00000000
C        C    0.78650000  0.14950000  0.58450000  0.00000000
H        H    0.84360000  0.43600000  0.19780000  0.00000000
H        H    0.56400000  0.80220000  0.15640000  0.00000000
H        H    0.15640000  0.56400000  0.80220000  0.00000000
H        H    0.19780000  0.84360000  0.43600000  0.00000000
H        H    0.43600000  0.19780000  0.84360000  0.00000000
H        H    0.80220000  0.15640000  0.56400000  0.00000000
C        C    0.84730000  0.41230000  0.23730000  0.00000000
C        C    0.58770000  0.76270000  0.15270000  0.00000000
C        C    0.15270000  0.58770000  0.76270000  0.00000000
C        C    0.23730000  0.84730000  0.41230000  0.00000000
C        C    0.41230000  0.23730000  0.84730000  0.00000000
C        C    0.76270000  0.15270000  0.58770000  0.00000000
H        H    0.83740000  0.43050000  0.23890000  0.00000000
H        H    0.56950000  0.76110000  0.16260000  0.00000000
H        H    0.16260000  0.56950000  0.76110000  0.00000000
H        H    0.23890000  0.83740000  0.43050000  0.00000000
H        H    0.43050000  0.23890000  0.83740000  0.00000000
H        H    0.76110000  0.16260000  0.56950000  0.00000000
C        C    0.85620000  0.38320000  0.26020000  0.00000000
C        C    0.61680000  0.73980000  0.14380000  0.00000000
C        C    0.14380000  0.61680000  0.73980000  0.00000000
C        C    0.26020000  0.85620000  0.38320000  0.00000000
C        C    0.38320000  0.26020000  0.85620000  0.00000000
C        C    0.73980000  0.14380000  0.61680000  0.00000000
C        C    0.88550000  0.40650000  0.31950000  0.00000000
C        C    0.59350000  0.68050000  0.11450000  0.00000000
C        C    0.11450000  0.59350000  0.68050000  0.00000000
C        C    0.31950000  0.88550000  0.40650000  0.00000000
C        C    0.40650000  0.31950000  0.88550000  0.00000000
C        C    0.68050000  0.11450000  0.59350000  0.00000000
C        C    0.89600000  0.42000000  0.31200000  0.00000000
C        C    0.58000000  0.68800000  0.10400000  0.00000000
C        C    0.10400000  0.58000000  0.68800000  0.00000000
C        C    0.31200000  0.89600000  0.42000000  0.00000000
C        C    0.42000000  0.31200000  0.89600000  0.00000000
C        C    0.68800000  0.10400000  0.58000000  0.00000000
C        C    0.87840000  0.28540000  0.41440000  0.00000000
C        C    0.71460000  0.58560000  0.12160000  0.00000000
C        C    0.12160000  0.71460000  0.58560000  0.00000000
C        C    0.41440000  0.87840000  0.28540000  0.00000000
C        C    0.28540000  0.41440000  0.87840000  0.00000000
C        C    0.58560000  0.12160000  0.71460000  0.00000000
C        C    0.87400000  0.31000000  0.39300000  0.00000000
C        C    0.69000000  0.60700000  0.12600000  0.00000000
C        C    0.12600000  0.69000000  0.60700000  0.00000000
C        C    0.39300000  0.87400000  0.31000000  0.00000000
C        C    0.31000000  0.39300000  0.87400000  0.00000000
C        C    0.60700000  0.12600000  0.69000000  0.00000000
C        C    0.85770000  0.37970000  0.28170000  0.00000000
C        C    0.62030000  0.71830000  0.14230000  0.00000000
C        C    0.14230000  0.62030000  0.71830000  0.00000000
C        C    0.28170000  0.85770000  0.37970000  0.00000000
C        C    0.37970000  0.28170000  0.85770000  0.00000000
C        C    0.71830000  0.14230000  0.62030000  0.00000000
C        C    0.85920000  0.37720000  0.29920000  0.00000000
C        C    0.62280000  0.70080000  0.14080000  0.00000000
C        C    0.14080000  0.62280000  0.70080000  0.00000000
C        C    0.29920000  0.85920000  0.37720000  0.00000000
C        C    0.37720000  0.29920000  0.85920000  0.00000000
C        C    0.70080000  0.14080000  0.62280000  0.00000000
C        C    0.92670000  0.41770000  0.31870000  0.00000000
C        C    0.58230000  0.68130000  0.07330000  0.00000000
C        C    0.07330000  0.58230000  0.68130000  0.00000000
C        C    0.31870000  0.92670000  0.41770000  0.00000000
C        C    0.41770000  0.31870000  0.92670000  0.00000000
C        C    0.68130000  0.07330000  0.58230000  0.00000000
H        H    0.92940000  0.39680000  0.33450000  0.00000000
H        H    0.60320000  0.66550000  0.07060000  0.00000000
H        H    0.07060000  0.60320000  0.66550000  0.00000000
H        H    0.33450000  0.92940000  0.39680000  0.00000000
H        H    0.39680000  0.33450000  0.92940000  0.00000000
H        H    0.66550000  0.07060000  0.60320000  0.00000000
C        C    0.94110000  0.43110000  0.31010000  0.00000000
C        C    0.56890000  0.68990000  0.05890000  0.00000000
C        C    0.05890000  0.56890000  0.68990000  0.00000000
C        C    0.31010000  0.94110000  0.43110000  0.00000000
C        C    0.43110000  0.31010000  0.94110000  0.00000000
C        C    0.68990000  0.05890000  0.56890000  0.00000000
H        H    0.95340000  0.41930000  0.32010000  0.00000000
H        H    0.58070000  0.67990000  0.04660000  0.00000000
H        H    0.04660000  0.58070000  0.67990000  0.00000000
H        H    0.32010000  0.95340000  0.41930000  0.00000000
H        H    0.41930000  0.32010000  0.95340000  0.00000000
H        H    0.67990000  0.04660000  0.58070000  0.00000000
C        C    0.84470000  0.37570000  0.15170000  0.00000000
C        C    0.62430000  0.84830000  0.15530000  0.00000000
C        C    0.15530000  0.62430000  0.84830000  0.00000000
C        C    0.15170000  0.84470000  0.37570000  0.00000000
C        C    0.37570000  0.15170000  0.84470000  0.00000000
C        C    0.84830000  0.15530000  0.62430000  0.00000000
C        C    0.82590000  0.36190000  0.16690000  0.00000000
C        C    0.63810000  0.83310000  0.17410000  0.00000000
C        C    0.17410000  0.63810000  0.83310000  0.00000000
C        C    0.16690000  0.82590000  0.36190000  0.00000000
C        C    0.36190000  0.16690000  0.82590000  0.00000000
C        C    0.83310000  0.17410000  0.63810000  0.00000000
C        C    0.81280000  0.31780000  0.20580000  0.00000000
C        C    0.68220000  0.79420000  0.18720000  0.00000000
C        C    0.18720000  0.68220000  0.79420000  0.00000000
C        C    0.20580000  0.81280000  0.31780000  0.00000000
C        C    0.31780000  0.20580000  0.81280000  0.00000000
C        C    0.79420000  0.18720000  0.68220000  0.00000000
H        H    0.81360000  0.29860000  0.22390000  0.00000000
H        H    0.70140000  0.77610000  0.18640000  0.00000000
H        H    0.18640000  0.70140000  0.77610000  0.00000000
H        H    0.22390000  0.81360000  0.29860000  0.00000000
H        H    0.29860000  0.22390000  0.81360000  0.00000000
H        H    0.77610000  0.18640000  0.70140000  0.00000000
C        C    0.82670000  0.33370000  0.19370000  0.00000000
C        C    0.66630000  0.80630000  0.17330000  0.00000000
C        C    0.17330000  0.66630000  0.80630000  0.00000000
C        C    0.19370000  0.82670000  0.33370000  0.00000000
C        C    0.33370000  0.19370000  0.82670000  0.00000000
C        C    0.80630000  0.17330000  0.66630000  0.00000000
H        H    0.83740000  0.32440000  0.20400000  0.00000000
H        H    0.67560000  0.79600000  0.16260000  0.00000000
H        H    0.16260000  0.67560000  0.79600000  0.00000000
H        H    0.20400000  0.83740000  0.32440000  0.00000000
H        H    0.32440000  0.20400000  0.83740000  0.00000000
H        H    0.79600000  0.16260000  0.67560000  0.00000000
C        C    0.77190000  0.27690000  0.21590000  0.00000000
C        C    0.72310000  0.78410000  0.22810000  0.00000000
C        C    0.22810000  0.72310000  0.78410000  0.00000000
C        C    0.21590000  0.77190000  0.27690000  0.00000000
C        C    0.27690000  0.21590000  0.77190000  0.00000000
C        C    0.78410000  0.22810000  0.72310000  0.00000000
C        C    0.76370000  0.28570000  0.19670000  0.00000000
C        C    0.71430000  0.80330000  0.23630000  0.00000000
C        C    0.23630000  0.71430000  0.80330000  0.00000000
C        C    0.19670000  0.76370000  0.28570000  0.00000000
C        C    0.28570000  0.19670000  0.76370000  0.00000000
C        C    0.80330000  0.23630000  0.71430000  0.00000000
H        H    0.76340000  0.30450000  0.17820000  0.00000000
H        H    0.69550000  0.82180000  0.23660000  0.00000000
H        H    0.23660000  0.69550000  0.82180000  0.00000000
H        H    0.17820000  0.76340000  0.30450000  0.00000000
H        H    0.30450000  0.17820000  0.76340000  0.00000000
H        H    0.82180000  0.23660000  0.69550000  0.00000000
C        C    0.75550000  0.26650000  0.20550000  0.00000000
C        C    0.73350000  0.79450000  0.24450000  0.00000000
C        C    0.24450000  0.73350000  0.79450000  0.00000000
C        C    0.20550000  0.75550000  0.26650000  0.00000000
C        C    0.26650000  0.20550000  0.75550000  0.00000000
C        C    0.79450000  0.24450000  0.73350000  0.00000000
C        C    0.75660000  0.23860000  0.23260000  0.00000000
C        C    0.76140000  0.76740000  0.24340000  0.00000000
C        C    0.24340000  0.76140000  0.76740000  0.00000000
C        C    0.23260000  0.75660000  0.23860000  0.00000000
C        C    0.23860000  0.23260000  0.75660000  0.00000000
C        C    0.76740000  0.24340000  0.76140000  0.00000000
H        H    0.75130000  0.22530000  0.23860000  0.00000000
H        H    0.77470000  0.76140000  0.24870000  0.00000000
H        H    0.24870000  0.77470000  0.76140000  0.00000000
H        H    0.23860000  0.75130000  0.22530000  0.00000000
H        H    0.22530000  0.23860000  0.75130000  0.00000000
H        H    0.76140000  0.24870000  0.77470000  0.00000000
C        C    0.76380000  0.23080000  0.25180000  0.00000000
C        C    0.76920000  0.74820000  0.23620000  0.00000000
C        C    0.23620000  0.76920000  0.74820000  0.00000000
C        C    0.25180000  0.76380000  0.23080000  0.00000000
C        C    0.23080000  0.25180000  0.76380000  0.00000000
C        C    0.74820000  0.23620000  0.76920000  0.00000000
C        C    0.77200000  0.25000000  0.24300000  0.00000000
C        C    0.75000000  0.75700000  0.22800000  0.00000000
C        C    0.22800000  0.75000000  0.75700000  0.00000000
C        C    0.24300000  0.77200000  0.25000000  0.00000000
C        C    0.25000000  0.24300000  0.77200000  0.00000000
C        C    0.75700000  0.22800000  0.75000000  0.00000000
H        H    0.77810000  0.24400000  0.25580000  0.00000000
H        H    0.75600000  0.74420000  0.22190000  0.00000000
H        H    0.22190000  0.75600000  0.74420000  0.00000000
H        H    0.25580000  0.77810000  0.24400000  0.00000000
H        H    0.24400000  0.25580000  0.77810000  0.00000000
H        H    0.74420000  0.22190000  0.75600000  0.00000000
C        C    0.75930000  0.15430000  0.33430000  0.00000000
C        C    0.84570000  0.66570000  0.24070000  0.00000000
C        C    0.24070000  0.84570000  0.66570000  0.00000000
C        C    0.33430000  0.75930000  0.15430000  0.00000000
C        C    0.15430000  0.33430000  0.75930000  0.00000000
C        C    0.66570000  0.24070000  0.84570000  0.00000000
C        C    0.77040000  0.14440000  0.35140000  0.00000000
C        C    0.85560000  0.64860000  0.22960000  0.00000000
C        C    0.22960000  0.85560000  0.64860000  0.00000000
C        C    0.35140000  0.77040000  0.14440000  0.00000000
C        C    0.14440000  0.35140000  0.77040000  0.00000000
C        C    0.64860000  0.22960000  0.85560000  0.00000000
H        H    0.78140000  0.15430000  0.34250000  0.00000000
H        H    0.84570000  0.65750000  0.21860000  0.00000000
H        H    0.21860000  0.84570000  0.65750000  0.00000000
H        H    0.34250000  0.78140000  0.15430000  0.00000000
H        H    0.15430000  0.34250000  0.78140000  0.00000000
H        H    0.65750000  0.21860000  0.84570000  0.00000000
C        C    0.76760000  0.11860000  0.38060000  0.00000000
C        C    0.88140000  0.61940000  0.23240000  0.00000000
C        C    0.23240000  0.88140000  0.61940000  0.00000000
C        C    0.38060000  0.76760000  0.11860000  0.00000000
C        C    0.11860000  0.38060000  0.76760000  0.00000000
C        C    0.61940000  0.23240000  0.88140000  0.00000000
H        H    0.77670000  0.11130000  0.39140000  0.00000000
H        H    0.88870000  0.60860000  0.22330000  0.00000000
H        H    0.22330000  0.88870000  0.60860000  0.00000000
H        H    0.39140000  0.77670000  0.11130000  0.00000000
H        H    0.11130000  0.39140000  0.77670000  0.00000000
H        H    0.60860000  0.22330000  0.88870000  0.00000000
C        C    0.75280000  0.10380000  0.39280000  0.00000000
C        C    0.89620000  0.60720000  0.24720000  0.00000000
C        C    0.24720000  0.89620000  0.60720000  0.00000000
C        C    0.39280000  0.75280000  0.10380000  0.00000000
C        C    0.10380000  0.39280000  0.75280000  0.00000000
C        C    0.60720000  0.24720000  0.89620000  0.00000000
C        C    0.73970000  0.11470000  0.37670000  0.00000000
C        C    0.88530000  0.62330000  0.26030000  0.00000000
C        C    0.26030000  0.88530000  0.62330000  0.00000000
C        C    0.37670000  0.73970000  0.11470000  0.00000000
C        C    0.11470000  0.37670000  0.73970000  0.00000000
C        C    0.62330000  0.26030000  0.88530000  0.00000000
H        H    0.72960000  0.10470000  0.38480000  0.00000000
H        H    0.89530000  0.61520000  0.27040000  0.00000000
H        H    0.27040000  0.89530000  0.61520000  0.00000000
H        H    0.38480000  0.72960000  0.10470000  0.00000000
H        H    0.10470000  0.38480000  0.72960000  0.00000000
H        H    0.61520000  0.27040000  0.89530000  0.00000000
C        C    0.74250000  0.14050000  0.34750000  0.00000000
C        C    0.85950000  0.65250000  0.25750000  0.00000000
C        C    0.25750000  0.85950000  0.65250000  0.00000000
C        C    0.34750000  0.74250000  0.14050000  0.00000000
C        C    0.14050000  0.34750000  0.74250000  0.00000000
C        C    0.65250000  0.25750000  0.85950000  0.00000000
H        H    0.73450000  0.14770000  0.33600000  0.00000000
H        H    0.85230000  0.66400000  0.26550000  0.00000000
H        H    0.26550000  0.85230000  0.66400000  0.00000000
H        H    0.33600000  0.73450000  0.14770000  0.00000000
H        H    0.14770000  0.33600000  0.73450000  0.00000000
H        H    0.66400000  0.26550000  0.85230000  0.00000000
C        C    0.71810000  0.29810000  0.15910000  0.00000000
C        C    0.70190000  0.84090000  0.28190000  0.00000000
C        C    0.28190000  0.70190000  0.84090000  0.00000000
C        C    0.15910000  0.71810000  0.29810000  0.00000000
C        C    0.29810000  0.15910000  0.71810000  0.00000000
C        C    0.84090000  0.28190000  0.70190000  0.00000000
C        C    0.69970000  0.34070000  0.11870000  0.00000000
C        C    0.65930000  0.88130000  0.30030000  0.00000000
C        C    0.30030000  0.65930000  0.88130000  0.00000000
C        C    0.11870000  0.69970000  0.34070000  0.00000000
C        C    0.34070000  0.11870000  0.69970000  0.00000000
C        C    0.88130000  0.30030000  0.65930000  0.00000000
H        H    0.70010000  0.35900000  0.09970000  0.00000000
H        H    0.64100000  0.90030000  0.29990000  0.00000000
H        H    0.29990000  0.64100000  0.90030000  0.00000000
H        H    0.09970000  0.70010000  0.35900000  0.00000000
H        H    0.35900000  0.09970000  0.70010000  0.00000000
H        H    0.90030000  0.29990000  0.64100000  0.00000000
C        C    0.71900000  0.32500000  0.13100000  0.00000000
C        C    0.67500000  0.86900000  0.28100000  0.00000000
C        C    0.28100000  0.67500000  0.86900000  0.00000000
C        C    0.13100000  0.71900000  0.32500000  0.00000000
C        C    0.32500000  0.13100000  0.71900000  0.00000000
C        C    0.86900000  0.28100000  0.67500000  0.00000000
H        H    0.73170000  0.33350000  0.12090000  0.00000000
H        H    0.66650000  0.87910000  0.26830000  0.00000000
H        H    0.26830000  0.66650000  0.87910000  0.00000000
H        H    0.12090000  0.73170000  0.33350000  0.00000000
H        H    0.33350000  0.12090000  0.73170000  0.00000000
H        H    0.87910000  0.26830000  0.66650000  0.00000000
C        C    0.80910000  0.37510000  0.15310000  0.00000000
C        C    0.62490000  0.84690000  0.19090000  0.00000000
C        C    0.19090000  0.62490000  0.84690000  0.00000000
C        C    0.15310000  0.80910000  0.37510000  0.00000000
C        C    0.37510000  0.15310000  0.80910000  0.00000000
C        C    0.84690000  0.19090000  0.62490000  0.00000000
H        H    0.80630000  0.39540000  0.13620000  0.00000000
H        H    0.60460000  0.86380000  0.19370000  0.00000000
H        H    0.19370000  0.60460000  0.86380000  0.00000000
H        H    0.13620000  0.80630000  0.39540000  0.00000000
H        H    0.39540000  0.13620000  0.80630000  0.00000000
H        H    0.86380000  0.19370000  0.60460000  0.00000000
C        C    0.79420000  0.36020000  0.16520000  0.00000000
C        C    0.63980000  0.83480000  0.20580000  0.00000000
C        C    0.20580000  0.63980000  0.83480000  0.00000000
C        C    0.16520000  0.79420000  0.36020000  0.00000000
C        C    0.36020000  0.16520000  0.79420000  0.00000000
C        C    0.83480000  0.20580000  0.63980000  0.00000000
H        H    0.78250000  0.36930000  0.15610000  0.00000000
H        H    0.63070000  0.84390000  0.21750000  0.00000000
H        H    0.21750000  0.63070000  0.84390000  0.00000000
H        H    0.15610000  0.78250000  0.36930000  0.00000000
H        H    0.36930000  0.15610000  0.78250000  0.00000000
H        H    0.84390000  0.21750000  0.63070000  0.00000000
C        C    0.79700000  0.33100000  0.19100000  0.00000000
C        C    0.66900000  0.80900000  0.20300000  0.00000000
C        C    0.20300000  0.66900000  0.80900000  0.00000000
C        C    0.19100000  0.79700000  0.33100000  0.00000000
C        C    0.33100000  0.19100000  0.79700000  0.00000000
C        C    0.80900000  0.20300000  0.66900000  0.00000000
C        C    0.74420000  0.27620000  0.18820000  0.00000000
C        C    0.72380000  0.81180000  0.25580000  0.00000000
C        C    0.25580000  0.72380000  0.81180000  0.00000000
C        C    0.18820000  0.74420000  0.27620000  0.00000000
C        C    0.27620000  0.18820000  0.74420000  0.00000000
C        C    0.81180000  0.25580000  0.72380000  0.00000000
C        C    0.73300000  0.28600000  0.17400000  0.00000000
C        C    0.71400000  0.82600000  0.26700000  0.00000000
C        C    0.26700000  0.71400000  0.82600000  0.00000000
C        C    0.17400000  0.73300000  0.28600000  0.00000000
C        C    0.28600000  0.17400000  0.73300000  0.00000000
C        C    0.82600000  0.26700000  0.71400000  0.00000000
C        C    0.76110000  0.18110000  0.30510000  0.00000000
C        C    0.81890000  0.69490000  0.23890000  0.00000000
C        C    0.23890000  0.81890000  0.69490000  0.00000000
C        C    0.30510000  0.76110000  0.18110000  0.00000000
C        C    0.18110000  0.30510000  0.76110000  0.00000000
C        C    0.69490000  0.23890000  0.81890000  0.00000000
C        C    0.76400000  0.20300000  0.28000000  0.00000000
C        C    0.79700000  0.72000000  0.23600000  0.00000000
C        C    0.23600000  0.79700000  0.72000000  0.00000000
C        C    0.28000000  0.76400000  0.20300000  0.00000000
C        C    0.20300000  0.28000000  0.76400000  0.00000000
C        C    0.72000000  0.23600000  0.79700000  0.00000000
C        C    0.78660000  0.31260000  0.20060000  0.00000000
C        C    0.68740000  0.79940000  0.21340000  0.00000000
C        C    0.21340000  0.68740000  0.79940000  0.00000000
C        C    0.20060000  0.78660000  0.31260000  0.00000000
C        C    0.31260000  0.20060000  0.78660000  0.00000000
C        C    0.79940000  0.21340000  0.68740000  0.00000000
C        C    0.77930000  0.29730000  0.20730000  0.00000000
C        C    0.70270000  0.79270000  0.22070000  0.00000000
C        C    0.22070000  0.70270000  0.79270000  0.00000000
C        C    0.20730000  0.77930000  0.29730000  0.00000000
C        C    0.29730000  0.20730000  0.77930000  0.00000000
C        C    0.79270000  0.22070000  0.70270000  0.00000000
C        C    0.69870000  0.28570000  0.17470000  0.00000000
C        C    0.71430000  0.82530000  0.30130000  0.00000000
C        C    0.30130000  0.71430000  0.82530000  0.00000000
C        C    0.17470000  0.69870000  0.28570000  0.00000000
C        C    0.28570000  0.17470000  0.69870000  0.00000000
C        C    0.82530000  0.30130000  0.71430000  0.00000000
H        H    0.69840000  0.26730000  0.19310000  0.00000000
H        H    0.73270000  0.80690000  0.30160000  0.00000000
H        H    0.30160000  0.73270000  0.80690000  0.00000000
H        H    0.19310000  0.69840000  0.26730000  0.00000000
H        H    0.26730000  0.19310000  0.69840000  0.00000000
H        H    0.80690000  0.30160000  0.73270000  0.00000000
C        C    0.67920000  0.30120000  0.16220000  0.00000000
C        C    0.69880000  0.83780000  0.32080000  0.00000000
C        C    0.32080000  0.69880000  0.83780000  0.00000000
C        C    0.16220000  0.67920000  0.30120000  0.00000000
C        C    0.30120000  0.16220000  0.67920000  0.00000000
C        C    0.83780000  0.32080000  0.69880000  0.00000000
H        H    0.66670000  0.29270000  0.17210000  0.00000000
H        H    0.70730000  0.82790000  0.33330000  0.00000000
H        H    0.33330000  0.70730000  0.82790000  0.00000000
H        H    0.17210000  0.66670000  0.29270000  0.00000000
H        H    0.29270000  0.17210000  0.66670000  0.00000000
H        H    0.82790000  0.33330000  0.70730000  0.00000000
C        C    0.67930000  0.32930000  0.13430000  0.00000000
C        C    0.67070000  0.86570000  0.32070000  0.00000000
C        C    0.32070000  0.67070000  0.86570000  0.00000000
C        C    0.13430000  0.67930000  0.32930000  0.00000000
C        C    0.32930000  0.13430000  0.67930000  0.00000000
C        C    0.86570000  0.32070000  0.67070000  0.00000000
C        C    0.65780000  0.34580000  0.12280000  0.00000000
C        C    0.65420000  0.87720000  0.34220000  0.00000000
C        C    0.34220000  0.65420000  0.87720000  0.00000000
C        C    0.12280000  0.65780000  0.34580000  0.00000000
C        C    0.34580000  0.12280000  0.65780000  0.00000000
C        C    0.87720000  0.34220000  0.65420000  0.00000000
C        C    0.97580000  0.45380000  0.77480000  0.00000000
C        C    0.54620000  0.22520000  0.02420000  0.00000000
C        C    0.02420000  0.54620000  0.22520000  0.00000000
C        C    0.77480000  0.97580000  0.45380000  0.00000000
C        C    0.45380000  0.77480000  0.97580000  0.00000000
C        C    0.22520000  0.02420000  0.54620000  0.00000000
C        C    0.96230000  0.43730000  0.78530000  0.00000000
C        C    0.56270000  0.21470000  0.03770000  0.00000000
C        C    0.03770000  0.56270000  0.21470000  0.00000000
C        C    0.78530000  0.96230000  0.43730000  0.00000000
C        C    0.43730000  0.78530000  0.96230000  0.00000000
C        C    0.21470000  0.03770000  0.56270000  0.00000000
C        C    0.91890000  0.42490000  0.81890000  0.00000000
C        C    0.57510000  0.18110000  0.08110000  0.00000000
C        C    0.08110000  0.57510000  0.18110000  0.00000000
C        C    0.81890000  0.91890000  0.42490000  0.00000000
C        C    0.42490000  0.81890000  0.91890000  0.00000000
C        C    0.18110000  0.08110000  0.57510000  0.00000000
H        H    0.89840000  0.42670000  0.83520000  0.00000000
H        H    0.57330000  0.16480000  0.10160000  0.00000000
H        H    0.10160000  0.57330000  0.16480000  0.00000000
H        H    0.83520000  0.89840000  0.42670000  0.00000000
H        H    0.42670000  0.83520000  0.89840000  0.00000000
H        H    0.16480000  0.10160000  0.57330000  0.00000000
C        C    0.93110000  0.44010000  0.81010000  0.00000000
C        C    0.55990000  0.18990000  0.06890000  0.00000000
C        C    0.06890000  0.55990000  0.18990000  0.00000000
C        C    0.81010000  0.93110000  0.44010000  0.00000000
C        C    0.44010000  0.81010000  0.93110000  0.00000000
C        C    0.18990000  0.06890000  0.55990000  0.00000000
H        H    0.92040000  0.45170000  0.82000000  0.00000000
H        H    0.54830000  0.18000000  0.07960000  0.00000000
H        H    0.07960000  0.54830000  0.18000000  0.00000000
H        H    0.82000000  0.92040000  0.45170000  0.00000000
H        H    0.45170000  0.82000000  0.92040000  0.00000000
H        H    0.18000000  0.07960000  0.54830000  0.00000000
C        C    0.88850000  0.37350000  0.83050000  0.00000000
C        C    0.62650000  0.16950000  0.11150000  0.00000000
C        C    0.11150000  0.62650000  0.16950000  0.00000000
C        C    0.83050000  0.88850000  0.37350000  0.00000000
C        C    0.37350000  0.83050000  0.88850000  0.00000000
C        C    0.16950000  0.11150000  0.62650000  0.00000000
C        C    0.89510000  0.36610000  0.81210000  0.00000000
C        C    0.63390000  0.18790000  0.10490000  0.00000000
C        C    0.10490000  0.63390000  0.18790000  0.00000000
C        C    0.81210000  0.89510000  0.36610000  0.00000000
C        C    0.36610000  0.81210000  0.89510000  0.00000000
C        C    0.18790000  0.10490000  0.63390000  0.00000000
H        H    0.91370000  0.36560000  0.79310000  0.00000000
H        H    0.63440000  0.20690000  0.08630000  0.00000000
H        H    0.08630000  0.63440000  0.20690000  0.00000000
H        H    0.79310000  0.91370000  0.36560000  0.00000000
H        H    0.36560000  0.79310000  0.91370000  0.00000000
H        H    0.20690000  0.08630000  0.63440000  0.00000000
C        C    0.87300000  0.36100000  0.82100000  0.00000000
C        C    0.63900000  0.17900000  0.12700000  0.00000000
C        C    0.12700000  0.63900000  0.17900000  0.00000000
C        C    0.82100000  0.87300000  0.36100000  0.00000000
C        C    0.36100000  0.82100000  0.87300000  0.00000000
C        C    0.17900000  0.12700000  0.63900000  0.00000000
C        C    0.84640000  0.36140000  0.84840000  0.00000000
C        C    0.63860000  0.15160000  0.15360000  0.00000000
C        C    0.15360000  0.63860000  0.15160000  0.00000000
C        C    0.84840000  0.84640000  0.36140000  0.00000000
C        C    0.36140000  0.84840000  0.84640000  0.00000000
C        C    0.15160000  0.15360000  0.63860000  0.00000000
H        H    0.83190000  0.35750000  0.85450000  0.00000000
H        H    0.64250000  0.14550000  0.16810000  0.00000000
H        H    0.16810000  0.64250000  0.14550000  0.00000000
H        H    0.85450000  0.83190000  0.35750000  0.00000000
H        H    0.35750000  0.85450000  0.83190000  0.00000000
H        H    0.14550000  0.16810000  0.64250000  0.00000000
C        C    0.83980000  0.36880000  0.86680000  0.00000000
C        C    0.63120000  0.13320000  0.16020000  0.00000000
C        C    0.16020000  0.63120000  0.13320000  0.00000000
C        C    0.86680000  0.83980000  0.36880000  0.00000000
C        C    0.36880000  0.86680000  0.83980000  0.00000000
C        C    0.13320000  0.16020000  0.63120000  0.00000000
C        C    0.86090000  0.37490000  0.85790000  0.00000000
C        C    0.62510000  0.14210000  0.13910000  0.00000000
C        C    0.13910000  0.62510000  0.14210000  0.00000000
C        C    0.85790000  0.86090000  0.37490000  0.00000000
C        C    0.37490000  0.85790000  0.86090000  0.00000000
C        C    0.14210000  0.13910000  0.62510000  0.00000000
H        H    0.85670000  0.37930000  0.87060000  0.00000000
H        H    0.62070000  0.12940000  0.14330000  0.00000000
H        H    0.14330000  0.62070000  0.12940000  0.00000000
H        H    0.87060000  0.85670000  0.37930000  0.00000000
H        H    0.37930000  0.87060000  0.85670000  0.00000000
H        H    0.12940000  0.14330000  0.62070000  0.00000000
C        C    0.75630000  0.38430000  0.93930000  0.00000000
C        C    0.61570000  0.06070000  0.24370000  0.00000000
C        C    0.24370000  0.61570000  0.06070000  0.00000000
C        C    0.93930000  0.75630000  0.38430000  0.00000000
C        C    0.38430000  0.93930000  0.75630000  0.00000000
C        C    0.06070000  0.24370000  0.61570000  0.00000000
C        C    0.74980000  0.39280000  0.95680000  0.00000000
C        C    0.60720000  0.04320000  0.25020000  0.00000000
C        C    0.25020000  0.60720000  0.04320000  0.00000000
C        C    0.95680000  0.74980000  0.39280000  0.00000000
C        C    0.39280000  0.95680000  0.74980000  0.00000000
C        C    0.04320000  0.25020000  0.60720000  0.00000000
H        H    0.76470000  0.39620000  0.95080000  0.00000000
H        H    0.60380000  0.04920000  0.23530000  0.00000000
H        H    0.23530000  0.60380000  0.04920000  0.00000000
H        H    0.95080000  0.76470000  0.39620000  0.00000000
H        H    0.39620000  0.95080000  0.76470000  0.00000000
H        H    0.04920000  0.23530000  0.60380000  0.00000000
C        C    0.72140000  0.39740000  0.98240000  0.00000000
C        C    0.60260000  0.01760000  0.27860000  0.00000000
C        C    0.27860000  0.60260000  0.01760000  0.00000000
C        C    0.98240000  0.72140000  0.39740000  0.00000000
C        C    0.39740000  0.98240000  0.72140000  0.00000000
C        C    0.01760000  0.27860000  0.60260000  0.00000000
H        H    0.71680000  0.40320000  0.99440000  0.00000000
H        H    0.59680000  0.00560000  0.28320000  0.00000000
H        H    0.28320000  0.59680000  0.00560000  0.00000000
H        H    0.99440000  0.71680000  0.40320000  0.00000000
H        H    0.40320000  0.99440000  0.71680000  0.00000000
H        H    0.00560000  0.28320000  0.59680000  0.00000000
C        C    0.69840000  0.39340000  0.99140000  0.00000000
C        C    0.60660000  0.00860000  0.30160000  0.00000000
C        C    0.30160000  0.60660000  0.00860000  0.00000000
C        C    0.99140000  0.69840000  0.39340000  0.00000000
C        C    0.39340000  0.99140000  0.69840000  0.00000000
C        C    0.00860000  0.30160000  0.60660000  0.00000000
C        C    0.70390000  0.38590000  0.97390000  0.00000000
C        C    0.61410000  0.02610000  0.29610000  0.00000000
C        C    0.29610000  0.61410000  0.02610000  0.00000000
C        C    0.97390000  0.70390000  0.38590000  0.00000000
C        C    0.38590000  0.97390000  0.70390000  0.00000000
C        C    0.02610000  0.29610000  0.61410000  0.00000000
H        H    0.68920000  0.38340000  0.97910000  0.00000000
H        H    0.61660000  0.02090000  0.31080000  0.00000000
H        H    0.31080000  0.61660000  0.02090000  0.00000000
H        H    0.97910000  0.68920000  0.38340000  0.00000000
H        H    0.38340000  0.97910000  0.68920000  0.00000000
H        H    0.02090000  0.31080000  0.61660000  0.00000000
C        C    0.73340000  0.38140000  0.94740000  0.00000000
C        C    0.61860000  0.05260000  0.26660000  0.00000000
C        C    0.26660000  0.61860000  0.05260000  0.00000000
C        C    0.94740000  0.73340000  0.38140000  0.00000000
C        C    0.38140000  0.94740000  0.73340000  0.00000000
C        C    0.05260000  0.26660000  0.61860000  0.00000000
H        H    0.73700000  0.37650000  0.93550000  0.00000000
H        H    0.62350000  0.06450000  0.26300000  0.00000000
H        H    0.26300000  0.62350000  0.06450000  0.00000000
H        H    0.93550000  0.73700000  0.37650000  0.00000000
H        H    0.37650000  0.93550000  0.73700000  0.00000000
H        H    0.06450000  0.26300000  0.62350000  0.00000000
C        C    0.88360000  0.35660000  0.75960000  0.00000000
C        C    0.64340000  0.24040000  0.11640000  0.00000000
C        C    0.11640000  0.64340000  0.24040000  0.00000000
C        C    0.75960000  0.88360000  0.35660000  0.00000000
C        C    0.35660000  0.75960000  0.88360000  0.00000000
C        C    0.24040000  0.11640000  0.64340000  0.00000000
C        C    0.91720000  0.35220000  0.71120000  0.00000000
C        C    0.64780000  0.28880000  0.08280000  0.00000000
C        C    0.08280000  0.64780000  0.28880000  0.00000000
C        C    0.71120000  0.91720000  0.35220000  0.00000000
C        C    0.35220000  0.71120000  0.91720000  0.00000000
C        C    0.28880000  0.08280000  0.64780000  0.00000000
H        H    0.93730000  0.34650000  0.69530000  0.00000000
H        H    0.65350000  0.30470000  0.06270000  0.00000000
H        H    0.06270000  0.65350000  0.30470000  0.00000000
H        H    0.69530000  0.93730000  0.34650000  0.00000000
H        H    0.34650000  0.69530000  0.93730000  0.00000000
H        H    0.30470000  0.06270000  0.65350000  0.00000000
C        C    0.91390000  0.34790000  0.73590000  0.00000000
C        C    0.65210000  0.26410000  0.08610000  0.00000000
C        C    0.08610000  0.65210000  0.26410000  0.00000000
C        C    0.73590000  0.91390000  0.34790000  0.00000000
C        C    0.34790000  0.73590000  0.91390000  0.00000000
C        C    0.26410000  0.08610000  0.65210000  0.00000000
H        H    0.93170000  0.33920000  0.73700000  0.00000000
H        H    0.66080000  0.26300000  0.06830000  0.00000000
H        H    0.06830000  0.66080000  0.26300000  0.00000000
H        H    0.73700000  0.93170000  0.33920000  0.00000000
H        H    0.33920000  0.73700000  0.93170000  0.00000000
H        H    0.26300000  0.06830000  0.66080000  0.00000000
C        C    0.97910000  0.41910000  0.77110000  0.00000000
C        C    0.58090000  0.22890000  0.02090000  0.00000000
C        C    0.02090000  0.58090000  0.22890000  0.00000000
C        C    0.77110000  0.97910000  0.41910000  0.00000000
C        C    0.41910000  0.77110000  0.97910000  0.00000000
C        C    0.22890000  0.02090000  0.58090000  0.00000000
H        H    0.99950000  0.41700000  0.75490000  0.00000000
H        H    0.58300000  0.24510000  0.00050000  0.00000000
H        H    0.00050000  0.58300000  0.24510000  0.00000000
H        H    0.75490000  0.99950000  0.41700000  0.00000000
H        H    0.41700000  0.75490000  0.99950000  0.00000000
H        H    0.24510000  0.00050000  0.58300000  0.00000000
C        C    0.96580000  0.40480000  0.77980000  0.00000000
C        C    0.59520000  0.22020000  0.03420000  0.00000000
C        C    0.03420000  0.59520000  0.22020000  0.00000000
C        C    0.77980000  0.96580000  0.40480000  0.00000000
C        C    0.40480000  0.77980000  0.96580000  0.00000000
C        C    0.22020000  0.03420000  0.59520000  0.00000000
H        H    0.97730000  0.39230000  0.77030000  0.00000000
H        H    0.60770000  0.22970000  0.02270000  0.00000000
H        H    0.02270000  0.60770000  0.22970000  0.00000000
H        H    0.77030000  0.97730000  0.39230000  0.00000000
H        H    0.39230000  0.77030000  0.97730000  0.00000000
H        H    0.22970000  0.02270000  0.60770000  0.00000000
C        C    0.93570000  0.40770000  0.80370000  0.00000000
C        C    0.59230000  0.19630000  0.06430000  0.00000000
C        C    0.06430000  0.59230000  0.19630000  0.00000000
C        C    0.80370000  0.93570000  0.40770000  0.00000000
C        C    0.40770000  0.80370000  0.93570000  0.00000000
C        C    0.19630000  0.06430000  0.59230000  0.00000000
C        C    0.87750000  0.35750000  0.80050000  0.00000000
C        C    0.64250000  0.19950000  0.12250000  0.00000000
C        C    0.12250000  0.64250000  0.19950000  0.00000000
C        C    0.80050000  0.87750000  0.35750000  0.00000000
C        C    0.35750000  0.80050000  0.87750000  0.00000000
C        C    0.19950000  0.12250000  0.64250000  0.00000000
C        C    0.88100000  0.35600000  0.78200000  0.00000000
C        C    0.64400000  0.21800000  0.11900000  0.00000000
C        C    0.11900000  0.64400000  0.21800000  0.00000000
C        C    0.78200000  0.88100000  0.35600000  0.00000000
C        C    0.35600000  0.78200000  0.88100000  0.00000000
C        C    0.21800000  0.11900000  0.64400000  0.00000000
C        C    0.78570000  0.37870000  0.91370000  0.00000000
C        C    0.62130000  0.08630000  0.21430000  0.00000000
C        C    0.21430000  0.62130000  0.08630000  0.00000000
C        C    0.91370000  0.78570000  0.37870000  0.00000000
C        C    0.37870000  0.91370000  0.78570000  0.00000000
C        C    0.08630000  0.21430000  0.62130000  0.00000000
C        C    0.81030000  0.37430000  0.89230000  0.00000000
C        C    0.62570000  0.10770000  0.18970000  0.00000000
C        C    0.18970000  0.62570000  0.10770000  0.00000000
C        C    0.89230000  0.81030000  0.37430000  0.00000000
C        C    0.37430000  0.89230000  0.81030000  0.00000000
C        C    0.10770000  0.18970000  0.62570000  0.00000000
C        C    0.92110000  0.39410000  0.81210000  0.00000000
C        C    0.60590000  0.18790000  0.07890000  0.00000000
C        C    0.07890000  0.60590000  0.18790000  0.00000000
C        C    0.81210000  0.92110000  0.39410000  0.00000000
C        C    0.39410000  0.81210000  0.92110000  0.00000000
C        C    0.18790000  0.07890000  0.60590000  0.00000000
C        C    0.90770000  0.38370000  0.81970000  0.00000000
C        C    0.61630000  0.18030000  0.09230000  0.00000000
C        C    0.09230000  0.61630000  0.18030000  0.00000000
C        C    0.81970000  0.90770000  0.38370000  0.00000000
C        C    0.38370000  0.81970000  0.90770000  0.00000000
C        C    0.18030000  0.09230000  0.61630000  0.00000000
C        C    0.85850000  0.36750000  0.75850000  0.00000000
C        C    0.63250000  0.24150000  0.14150000  0.00000000
C        C    0.14150000  0.63250000  0.24150000  0.00000000
C        C    0.75850000  0.85850000  0.36750000  0.00000000
C        C    0.36750000  0.75850000  0.85850000  0.00000000
C        C    0.24150000  0.14150000  0.63250000  0.00000000
H        H    0.83770000  0.37270000  0.77530000  0.00000000
H        H    0.62730000  0.22470000  0.16230000  0.00000000
H        H    0.16230000  0.62730000  0.22470000  0.00000000
H        H    0.77530000  0.83770000  0.37270000  0.00000000
H        H    0.37270000  0.77530000  0.83770000  0.00000000
H        H    0.22470000  0.16230000  0.62730000  0.00000000
C        C    0.86170000  0.37170000  0.73370000  0.00000000
C        C    0.62830000  0.26630000  0.13830000  0.00000000
C        C    0.13830000  0.62830000  0.26630000  0.00000000
C        C    0.73370000  0.86170000  0.37170000  0.00000000
C        C    0.37170000  0.73370000  0.86170000  0.00000000
C        C    0.26630000  0.13830000  0.62830000  0.00000000
H        H    0.84330000  0.37960000  0.73370000  0.00000000
H        H    0.62040000  0.26630000  0.15670000  0.00000000
H        H    0.15670000  0.62040000  0.26630000  0.00000000
H        H    0.73370000  0.84330000  0.37960000  0.00000000
H        H    0.37960000  0.73370000  0.84330000  0.00000000
H        H    0.26630000  0.15670000  0.62040000  0.00000000
C        C    0.89110000  0.36510000  0.70910000  0.00000000
C        C    0.63490000  0.29090000  0.10890000  0.00000000
C        C    0.10890000  0.63490000  0.29090000  0.00000000
C        C    0.70910000  0.89110000  0.36510000  0.00000000
C        C    0.36510000  0.70910000  0.89110000  0.00000000
C        C    0.29090000  0.10890000  0.63490000  0.00000000
C        C    0.91260000  0.58660000  0.74960000  0.00000000
C        C    0.41340000  0.25040000  0.08740000  0.00000000
C        C    0.08740000  0.41340000  0.25040000  0.00000000
C        C    0.74960000  0.91260000  0.58660000  0.00000000
C        C    0.58660000  0.74960000  0.91260000  0.00000000
C        C    0.25040000  0.08740000  0.41340000  0.00000000
C        C    0.85570000  0.61370000  0.77370000  0.00000000
C        C    0.38630000  0.22630000  0.14430000  0.00000000
C        C    0.14430000  0.38630000  0.22630000  0.00000000
C        C    0.77370000  0.85570000  0.61370000  0.00000000
C        C    0.61370000  0.77370000  0.85570000  0.00000000
C        C    0.22630000  0.14430000  0.38630000  0.00000000
H        H    0.83670000  0.61240000  0.79040000  0.00000000
H        H    0.38760000  0.20960000  0.16330000  0.00000000
H        H    0.16330000  0.38760000  0.20960000  0.00000000
H        H    0.79040000  0.83670000  0.61240000  0.00000000
H        H    0.61240000  0.79040000  0.83670000  0.00000000
H        H    0.20960000  0.16330000  0.38760000  0.00000000
C        C    0.88370000  0.58570000  0.77370000  0.00000000
C        C    0.41430000  0.22630000  0.11630000  0.00000000
C        C    0.11630000  0.41430000  0.22630000  0.00000000
C        C    0.77370000  0.88370000  0.58570000  0.00000000
C        C    0.58570000  0.77370000  0.88370000  0.00000000
C        C    0.22630000  0.11630000  0.41430000  0.00000000
H        H    0.88290000  0.56630000  0.79060000  0.00000000
H        H    0.43370000  0.20940000  0.11710000  0.00000000
H        H    0.11710000  0.43370000  0.20940000  0.00000000
H        H    0.79060000  0.88290000  0.56630000  0.00000000
H        H    0.56630000  0.79060000  0.88290000  0.00000000
H        H    0.20940000  0.11710000  0.43370000  0.00000000
C        C    0.77620000  0.72220000  0.74920000  0.00000000
C        C    0.27780000  0.25080000  0.22380000  0.00000000
C        C    0.22380000  0.27780000  0.25080000  0.00000000
C        C    0.74920000  0.77620000  0.72220000  0.00000000
C        C    0.72220000  0.74920000  0.77620000  0.00000000
C        C    0.25080000  0.22380000  0.27780000  0.00000000
C        C    0.77720000  0.74920000  0.72120000  0.00000000
C        C    0.25080000  0.27880000  0.22280000  0.00000000
C        C    0.22280000  0.25080000  0.27880000  0.00000000
C        C    0.72120000  0.77720000  0.74920000  0.00000000
C        C    0.74920000  0.72120000  0.77720000  0.00000000
C        C    0.27880000  0.22280000  0.25080000  0.00000000
H        H    0.79530000  0.74950000  0.70280000  0.00000000
H        H    0.25050000  0.29720000  0.20470000  0.00000000
H        H    0.20470000  0.25050000  0.29720000  0.00000000
H        H    0.70280000  0.79530000  0.74950000  0.00000000
H        H    0.74950000  0.70280000  0.79530000  0.00000000
H        H    0.29720000  0.20470000  0.25050000  0.00000000
C        C    0.85640000  0.64240000  0.74940000  0.00000000
C        C    0.35760000  0.25060000  0.14360000  0.00000000
C        C    0.14360000  0.35760000  0.25060000  0.00000000
C        C    0.74940000  0.85640000  0.64240000  0.00000000
C        C    0.64240000  0.74940000  0.85640000  0.00000000
C        C    0.25060000  0.14360000  0.35760000  0.00000000
C        C    0.91330000  0.61630000  0.72430000  0.00000000
C        C    0.38370000  0.27570000  0.08670000  0.00000000
C        C    0.08670000  0.38370000  0.27570000  0.00000000
C        C    0.72430000  0.91330000  0.61630000  0.00000000
C        C    0.61630000  0.72430000  0.91330000  0.00000000
C        C    0.27570000  0.08670000  0.38370000  0.00000000
H        H    0.93310000  0.61690000  0.70750000  0.00000000
H        H    0.38310000  0.29250000  0.06690000  0.00000000
H        H    0.06690000  0.38310000  0.29250000  0.00000000
H        H    0.70750000  0.93310000  0.61690000  0.00000000
H        H    0.61690000  0.70750000  0.93310000  0.00000000
H        H    0.29250000  0.06690000  0.38310000  0.00000000
C        C    0.88620000  0.64320000  0.72420000  0.00000000
C        C    0.35680000  0.27580000  0.11380000  0.00000000
C        C    0.11380000  0.35680000  0.27580000  0.00000000
C        C    0.72420000  0.88620000  0.64320000  0.00000000
C        C    0.64320000  0.72420000  0.88620000  0.00000000
C        C    0.27580000  0.11380000  0.35680000  0.00000000
H        H    0.88660000  0.66290000  0.70740000  0.00000000
H        H    0.33710000  0.29260000  0.11340000  0.00000000
H        H    0.11340000  0.33710000  0.29260000  0.00000000
H        H    0.70740000  0.88660000  0.66290000  0.00000000
H        H    0.66290000  0.70740000  0.88660000  0.00000000
H        H    0.29260000  0.11340000  0.33710000  0.00000000
C        C    0.80530000  0.69330000  0.74930000  0.00000000
C        C    0.30670000  0.25070000  0.19470000  0.00000000
C        C    0.19470000  0.30670000  0.25070000  0.00000000
C        C    0.74930000  0.80530000  0.69330000  0.00000000
C        C    0.69330000  0.74930000  0.80530000  0.00000000
C        C    0.25070000  0.19470000  0.30670000  0.00000000
C        C    0.82830000  0.67030000  0.74930000  0.00000000
C        C    0.32970000  0.25070000  0.17170000  0.00000000
C        C    0.17170000  0.32970000  0.25070000  0.00000000
C        C    0.74930000  0.82830000  0.67030000  0.00000000
C        C    0.67030000  0.74930000  0.82830000  0.00000000
C        C    0.25070000  0.17170000  0.32970000  0.00000000
C        C    0.94170000  0.55770000  0.74970000  0.00000000
C        C    0.44230000  0.25030000  0.05830000  0.00000000
C        C    0.05830000  0.44230000  0.25030000  0.00000000
C        C    0.74970000  0.94170000  0.55770000  0.00000000
C        C    0.55770000  0.74970000  0.94170000  0.00000000
C        C    0.25030000  0.05830000  0.44230000  0.00000000
C        C    0.97900000  0.30100000  0.12600000  0.00000000
C        C    0.69900000  0.87400000  0.02100000  0.00000000
C        C    0.02100000  0.69900000  0.87400000  0.00000000
C        C    0.12600000  0.97900000  0.30100000  0.00000000
C        C    0.30100000  0.12600000  0.97900000  0.00000000
C        C    0.87400000  0.02100000  0.69900000  0.00000000
C        C    0.03210000  0.26810000  0.10310000  0.00000000
C        C    0.73190000  0.89690000  0.96790000  0.00000000
C        C    0.96790000  0.73190000  0.89690000  0.00000000
C        C    0.10310000  0.03210000  0.26810000  0.00000000
C        C    0.26810000  0.10310000  0.03210000  0.00000000
C        C    0.89690000  0.96790000  0.73190000  0.00000000
H        H    0.05210000  0.26560000  0.08530000  0.00000000
H        H    0.73440000  0.91470000  0.94790000  0.00000000
H        H    0.94790000  0.73440000  0.91470000  0.00000000
H        H    0.08530000  0.05210000  0.26560000  0.00000000
H        H    0.26560000  0.08530000  0.05210000  0.00000000
H        H    0.91470000  0.94790000  0.73440000  0.00000000
C        C    0.00790000  0.29790000  0.09990000  0.00000000
C        C    0.70210000  0.90010000  0.99210000  0.00000000
C        C    0.99210000  0.70210000  0.90010000  0.00000000
C        C    0.09990000  0.00790000  0.29790000  0.00000000
C        C    0.29790000  0.09990000  0.00790000  0.00000000
C        C    0.90010000  0.99210000  0.70210000  0.00000000
H        H    0.01080000  0.31530000  0.08110000  0.00000000
H        H    0.68470000  0.91890000  0.98920000  0.00000000
H        H    0.98920000  0.68470000  0.91890000  0.00000000
H        H    0.08110000  0.01080000  0.31530000  0.00000000
H        H    0.31530000  0.08110000  0.01080000  0.00000000
H        H    0.91890000  0.98920000  0.68470000  0.00000000
C        C    0.10360000  0.15960000  0.13260000  0.00000000
C        C    0.84040000  0.86740000  0.89640000  0.00000000
C        C    0.89640000  0.84040000  0.86740000  0.00000000
C        C    0.13260000  0.10360000  0.15960000  0.00000000
C        C    0.15960000  0.13260000  0.10360000  0.00000000
C        C    0.86740000  0.89640000  0.84040000  0.00000000
C        C    0.10460000  0.13160000  0.15960000  0.00000000
C        C    0.86840000  0.84040000  0.89540000  0.00000000
C        C    0.89540000  0.86840000  0.84040000  0.00000000
C        C    0.15960000  0.10460000  0.13160000  0.00000000
C        C    0.13160000  0.15960000  0.10460000  0.00000000
C        C    0.84040000  0.89540000  0.86840000  0.00000000
H        H    0.08610000  0.13100000  0.17870000  0.00000000
H        H    0.86900000  0.82130000  0.91390000  0.00000000
H        H    0.91390000  0.86900000  0.82130000  0.00000000
H        H    0.17870000  0.08610000  0.13100000  0.00000000
H        H    0.13100000  0.17870000  0.08610000  0.00000000
H        H    0.82130000  0.91390000  0.86900000  0.00000000
C        C    0.97430000  0.27530000  0.15430000  0.00000000
C        C    0.72470000  0.84570000  0.02570000  0.00000000
C        C    0.02570000  0.72470000  0.84570000  0.00000000
C        C    0.15430000  0.97430000  0.27530000  0.00000000
C        C    0.27530000  0.15430000  0.97430000  0.00000000
C        C    0.84570000  0.02570000  0.72470000  0.00000000
H        H    0.95490000  0.27710000  0.17220000  0.00000000
H        H    0.72290000  0.82780000  0.04510000  0.00000000
H        H    0.04510000  0.72290000  0.82780000  0.00000000
H        H    0.17220000  0.95490000  0.27710000  0.00000000
H        H    0.27710000  0.17220000  0.95490000  0.00000000
H        H    0.82780000  0.04510000  0.72290000  0.00000000
C        C    0.02740000  0.24240000  0.13140000  0.00000000
C        C    0.75760000  0.86860000  0.97260000  0.00000000
C        C    0.97260000  0.75760000  0.86860000  0.00000000
C        C    0.13140000  0.02740000  0.24240000  0.00000000
C        C    0.24240000  0.13140000  0.02740000  0.00000000
C        C    0.86860000  0.97260000  0.75760000  0.00000000
C        C    0.99850000  0.24550000  0.15750000  0.00000000
C        C    0.75450000  0.84250000  0.00150000  0.00000000
C        C    0.00150000  0.75450000  0.84250000  0.00000000
C        C    0.15750000  0.99850000  0.24550000  0.00000000
C        C    0.24550000  0.15750000  0.99850000  0.00000000
C        C    0.84250000  0.00150000  0.75450000  0.00000000
H        H    0.99650000  0.22740000  0.17640000  0.00000000
H        H    0.77260000  0.82360000  0.00350000  0.00000000
H        H    0.00350000  0.77260000  0.82360000  0.00000000
H        H    0.17640000  0.99650000  0.22740000  0.00000000
H        H    0.22740000  0.17640000  0.99650000  0.00000000
H        H    0.82360000  0.00350000  0.77260000  0.00000000
C        C    0.07700000  0.18700000  0.13300000  0.00000000
C        C    0.81300000  0.86700000  0.92300000  0.00000000
C        C    0.92300000  0.81300000  0.86700000  0.00000000
C        C    0.13300000  0.07700000  0.18700000  0.00000000
C        C    0.18700000  0.13300000  0.07700000  0.00000000
C        C    0.86700000  0.92300000  0.81300000  0.00000000
C        C    0.05460000  0.21160000  0.13260000  0.00000000
C        C    0.78840000  0.86740000  0.94540000  0.00000000
C        C    0.94540000  0.78840000  0.86740000  0.00000000
C        C    0.13260000  0.05460000  0.21160000  0.00000000
C        C    0.21160000  0.13260000  0.05460000  0.00000000
C        C    0.86740000  0.94540000  0.78840000  0.00000000
C        C    0.39430000  0.36630000  0.34030000  0.00000000
C        C    0.63370000  0.65970000  0.60570000  0.00000000
C        C    0.60570000  0.63370000  0.65970000  0.00000000
C        C    0.34030000  0.39430000  0.36630000  0.00000000
C        C    0.36630000  0.34030000  0.39430000  0.00000000
C        C    0.65970000  0.60570000  0.63370000  0.00000000
C        C    0.36730000  0.39430000  0.33930000  0.00000000
C        C    0.60570000  0.66070000  0.63270000  0.00000000
C        C    0.63270000  0.60570000  0.66070000  0.00000000
C        C    0.33930000  0.36730000  0.39430000  0.00000000
C        C    0.39430000  0.33930000  0.36730000  0.00000000
C        C    0.66070000  0.63270000  0.60570000  0.00000000
H        H    0.36850000  0.41260000  0.32010000  0.00000000
H        H    0.58740000  0.67990000  0.63150000  0.00000000
H        H    0.63150000  0.58740000  0.67990000  0.00000000
H        H    0.32010000  0.36850000  0.41260000  0.00000000
H        H    0.41260000  0.32010000  0.36850000  0.00000000
H        H    0.67990000  0.63150000  0.58740000  0.00000000
C        C    0.47120000  0.36820000  0.25820000  0.00000000
C        C    0.63180000  0.74180000  0.52880000  0.00000000
C        C    0.52880000  0.63180000  0.74180000  0.00000000
C        C    0.25820000  0.47120000  0.36820000  0.00000000
C        C    0.36820000  0.25820000  0.47120000  0.00000000
C        C    0.74180000  0.52880000  0.63180000  0.00000000
C        C    0.46780000  0.39680000  0.23180000  0.00000000
C        C    0.60320000  0.76820000  0.53220000  0.00000000
C        C    0.53220000  0.60320000  0.76820000  0.00000000
C        C    0.23180000  0.46780000  0.39680000  0.00000000
C        C    0.39680000  0.23180000  0.46780000  0.00000000
C        C    0.76820000  0.53220000  0.60320000  0.00000000
H        H    0.44870000  0.41390000  0.23410000  0.00000000
H        H    0.58610000  0.76590000  0.55130000  0.00000000
H        H    0.55130000  0.58610000  0.76590000  0.00000000
H        H    0.23410000  0.44870000  0.41390000  0.00000000
H        H    0.41390000  0.23410000  0.44870000  0.00000000
H        H    0.76590000  0.55130000  0.58610000  0.00000000
C        C    0.49320000  0.39920000  0.20220000  0.00000000
C        C    0.60080000  0.79780000  0.50680000  0.00000000
C        C    0.50680000  0.60080000  0.79780000  0.00000000
C        C    0.20220000  0.49320000  0.39920000  0.00000000
C        C    0.39920000  0.20220000  0.49320000  0.00000000
C        C    0.79780000  0.50680000  0.60080000  0.00000000
H        H    0.49040000  0.41860000  0.18470000  0.00000000
H        H    0.58140000  0.81530000  0.50960000  0.00000000
H        H    0.50960000  0.58140000  0.81530000  0.00000000
H        H    0.18470000  0.49040000  0.41860000  0.00000000
H        H    0.41860000  0.18470000  0.49040000  0.00000000
H        H    0.81530000  0.50960000  0.58140000  0.00000000
C        C    0.52300000  0.37300000  0.19800000  0.00000000
C        C    0.62700000  0.80200000  0.47700000  0.00000000
C        C    0.47700000  0.62700000  0.80200000  0.00000000
C        C    0.19800000  0.52300000  0.37300000  0.00000000
C        C    0.37300000  0.19800000  0.52300000  0.00000000
C        C    0.80200000  0.47700000  0.62700000  0.00000000
C        C    0.52640000  0.34440000  0.22440000  0.00000000
C        C    0.65560000  0.77560000  0.47360000  0.00000000
C        C    0.47360000  0.65560000  0.77560000  0.00000000
C        C    0.22440000  0.52640000  0.34440000  0.00000000
C        C    0.34440000  0.22440000  0.52640000  0.00000000
C        C    0.77560000  0.47360000  0.65560000  0.00000000
H        H    0.54570000  0.32680000  0.22240000  0.00000000
H        H    0.67320000  0.77760000  0.45430000  0.00000000
H        H    0.45430000  0.67320000  0.77760000  0.00000000
H        H    0.22240000  0.54570000  0.32680000  0.00000000
H        H    0.32680000  0.22240000  0.54570000  0.00000000
H        H    0.77760000  0.45430000  0.67320000  0.00000000
C        C    0.50100000  0.34200000  0.25400000  0.00000000
C        C    0.65800000  0.74600000  0.49900000  0.00000000
C        C    0.49900000  0.65800000  0.74600000  0.00000000
C        C    0.25400000  0.50100000  0.34200000  0.00000000
C        C    0.34200000  0.25400000  0.50100000  0.00000000
C        C    0.74600000  0.49900000  0.65800000  0.00000000
H        H    0.50350000  0.32230000  0.27210000  0.00000000
H        H    0.67770000  0.72790000  0.49650000  0.00000000
H        H    0.49650000  0.67770000  0.72790000  0.00000000
H        H    0.27210000  0.50350000  0.32230000  0.00000000
H        H    0.32230000  0.27210000  0.50350000  0.00000000
H        H    0.72790000  0.49650000  0.67770000  0.00000000
C        C    0.42310000  0.36510000  0.31210000  0.00000000
C        C    0.63490000  0.68790000  0.57690000  0.00000000
C        C    0.57690000  0.63490000  0.68790000  0.00000000
C        C    0.31210000  0.42310000  0.36510000  0.00000000
C        C    0.36510000  0.31210000  0.42310000  0.00000000
C        C    0.68790000  0.57690000  0.63490000  0.00000000
C        C    0.44570000  0.36570000  0.28770000  0.00000000
C        C    0.63430000  0.71230000  0.55430000  0.00000000
C        C    0.55430000  0.63430000  0.71230000  0.00000000
C        C    0.28770000  0.44570000  0.36570000  0.00000000
C        C    0.36570000  0.28770000  0.44570000  0.00000000
C        C    0.71230000  0.55430000  0.63430000  0.00000000
C        C    0.96380000  0.41880000  0.96280000  0.00000000
C        C    0.58120000  0.03720000  0.03620000  0.00000000
C        C    0.03620000  0.58120000  0.03720000  0.00000000
C        C    0.96280000  0.96380000  0.41880000  0.00000000
C        C    0.41880000  0.96280000  0.96380000  0.00000000
C        C    0.03720000  0.03620000  0.58120000  0.00000000
H        H    0.98440000  0.40960000  0.95110000  0.00000000
H        H    0.59040000  0.04890000  0.01560000  0.00000000
H        H    0.01560000  0.59040000  0.04890000  0.00000000
H        H    0.95110000  0.98440000  0.40960000  0.00000000
H        H    0.40960000  0.95110000  0.98440000  0.00000000
H        H    0.04890000  0.01560000  0.59040000  0.00000000
C        C    0.95340000  0.41340000  0.99240000  0.00000000
C        C    0.58660000  0.00760000  0.04660000  0.00000000
C        C    0.04660000  0.58660000  0.00760000  0.00000000
C        C    0.99240000  0.95340000  0.41340000  0.00000000
C        C    0.41340000  0.99240000  0.95340000  0.00000000
C        C    0.00760000  0.04660000  0.58660000  0.00000000
H        H    0.96880000  0.39920000  0.99990000  0.00000000
H        H    0.60080000  0.00010000  0.03120000  0.00000000
H        H    0.03120000  0.60080000  0.00010000  0.00000000
H        H    0.99990000  0.96880000  0.39920000  0.00000000
H        H    0.39920000  0.99990000  0.96880000  0.00000000
H        H    0.00010000  0.03120000  0.60080000  0.00000000
C        C    0.92160000  0.42660000  0.01160000  0.00000000
C        C    0.57340000  0.98840000  0.07840000  0.00000000
C        C    0.07840000  0.57340000  0.98840000  0.00000000
C        C    0.01160000  0.92160000  0.42660000  0.00000000
C        C    0.42660000  0.01160000  0.92160000  0.00000000
C        C    0.98840000  0.07840000  0.57340000  0.00000000
C        C    0.90020000  0.44620000  0.00020000  0.00000000
C        C    0.55380000  0.99980000  0.09980000  0.00000000
C        C    0.09980000  0.55380000  0.99980000  0.00000000
C        C    0.00020000  0.90020000  0.44620000  0.00000000
C        C    0.44620000  0.00020000  0.90020000  0.00000000
C        C    0.99980000  0.09980000  0.55380000  0.00000000
H        H    0.87850000  0.45550000  0.01260000  0.00000000
H        H    0.54450000  0.98740000  0.12150000  0.00000000
H        H    0.12150000  0.54450000  0.98740000  0.00000000
H        H    0.01260000  0.87850000  0.45550000  0.00000000
H        H    0.45550000  0.01260000  0.87850000  0.00000000
H        H    0.98740000  0.12150000  0.54450000  0.00000000
C        C    0.90960000  0.45260000  0.97060000  0.00000000
C        C    0.54740000  0.02940000  0.09040000  0.00000000
C        C    0.09040000  0.54740000  0.02940000  0.00000000
C        C    0.97060000  0.90960000  0.45260000  0.00000000
C        C    0.45260000  0.97060000  0.90960000  0.00000000
C        C    0.02940000  0.09040000  0.54740000  0.00000000
H        H    0.89410000  0.46670000  0.96330000  0.00000000
H        H    0.53330000  0.03670000  0.10590000  0.00000000
H        H    0.10590000  0.53330000  0.03670000  0.00000000
H        H    0.96330000  0.89410000  0.46670000  0.00000000
H        H    0.46670000  0.96330000  0.89410000  0.00000000
H        H    0.03670000  0.10590000  0.53330000  0.00000000
C        C    0.94140000  0.43940000  0.95140000  0.00000000
C        C    0.56060000  0.04860000  0.05860000  0.00000000
C        C    0.05860000  0.56060000  0.04860000  0.00000000
C        C    0.95140000  0.94140000  0.43940000  0.00000000
C        C    0.43940000  0.95140000  0.94140000  0.00000000
C        C    0.04860000  0.05860000  0.56060000  0.00000000
C        C    0.98170000  0.44770000  0.89470000  0.00000000
C        C    0.55230000  0.10530000  0.01830000  0.00000000
C        C    0.01830000  0.55230000  0.10530000  0.00000000
C        C    0.89470000  0.98170000  0.44770000  0.00000000
C        C    0.44770000  0.89470000  0.98170000  0.00000000
C        C    0.10530000  0.01830000  0.55230000  0.00000000
H        H    0.99430000  0.44370000  0.89900000  0.00000000
H        H    0.55630000  0.10100000  0.00570000  0.00000000
H        H    0.00570000  0.55630000  0.10100000  0.00000000
H        H    0.89900000  0.99430000  0.44370000  0.00000000
H        H    0.44370000  0.89900000  0.99430000  0.00000000
H        H    0.10100000  0.00570000  0.55630000  0.00000000
C        C    0.95180000  0.44780000  0.91880000  0.00000000
C        C    0.55220000  0.08120000  0.04820000  0.00000000
C        C    0.04820000  0.55220000  0.08120000  0.00000000
C        C    0.91880000  0.95180000  0.44780000  0.00000000
C        C    0.44780000  0.91880000  0.95180000  0.00000000
C        C    0.08120000  0.04820000  0.55220000  0.00000000
C        C    0.93230000  0.45430000  0.91230000  0.00000000
C        C    0.54570000  0.08770000  0.06770000  0.00000000
C        C    0.06770000  0.54570000  0.08770000  0.00000000
C        C    0.91230000  0.93230000  0.45430000  0.00000000
C        C    0.45430000  0.91230000  0.93230000  0.00000000
C        C    0.08770000  0.06770000  0.54570000  0.00000000
H        H    0.91270000  0.45430000  0.92770000  0.00000000
H        H    0.54570000  0.07230000  0.08730000  0.00000000
H        H    0.08730000  0.54570000  0.07230000  0.00000000
H        H    0.92770000  0.91270000  0.45430000  0.00000000
H        H    0.45430000  0.92770000  0.91270000  0.00000000
H        H    0.07230000  0.08730000  0.54570000  0.00000000
C        C    0.94300000  0.46100000  0.88200000  0.00000000
C        C    0.53900000  0.11800000  0.05700000  0.00000000
C        C    0.05700000  0.53900000  0.11800000  0.00000000
C        C    0.88200000  0.94300000  0.46100000  0.00000000
C        C    0.46100000  0.88200000  0.94300000  0.00000000
C        C    0.11800000  0.05700000  0.53900000  0.00000000
H        H    0.92940000  0.46610000  0.87760000  0.00000000
H        H    0.53390000  0.12240000  0.07060000  0.00000000
H        H    0.07060000  0.53390000  0.12240000  0.00000000
H        H    0.87760000  0.92940000  0.46610000  0.00000000
H        H    0.46610000  0.87760000  0.92940000  0.00000000
H        H    0.12240000  0.07060000  0.53390000  0.00000000
C        C    0.97200000  0.46200000  0.85800000  0.00000000
C        C    0.53800000  0.14200000  0.02800000  0.00000000
C        C    0.02800000  0.53800000  0.14200000  0.00000000
C        C    0.85800000  0.97200000  0.46200000  0.00000000
C        C    0.46200000  0.85800000  0.97200000  0.00000000
C        C    0.14200000  0.02800000  0.53800000  0.00000000
C        C    0.99140000  0.45440000  0.86540000  0.00000000
C        C    0.54560000  0.13460000  0.00860000  0.00000000
C        C    0.00860000  0.54560000  0.13460000  0.00000000
C        C    0.86540000  0.99140000  0.45440000  0.00000000
C        C    0.45440000  0.86540000  0.99140000  0.00000000
C        C    0.13460000  0.00860000  0.54560000  0.00000000
H        H    0.01120000  0.45480000  0.84940000  0.00000000
H        H    0.54520000  0.15060000  0.98880000  0.00000000
H        H    0.98880000  0.54520000  0.15060000  0.00000000
H        H    0.84940000  0.01120000  0.45480000  0.00000000
H        H    0.45480000  0.84940000  0.01120000  0.00000000
H        H    0.15060000  0.98880000  0.54520000  0.00000000
C        C    0.63360000  0.04760000  0.50760000  0.00000000
C        C    0.95240000  0.49240000  0.36640000  0.00000000
C        C    0.36640000  0.95240000  0.49240000  0.00000000
C        C    0.50760000  0.63360000  0.04760000  0.00000000
C        C    0.04760000  0.50760000  0.63360000  0.00000000
C        C    0.49240000  0.36640000  0.95240000  0.00000000
H        H    0.64880000  0.04800000  0.48750000  0.00000000
H        H    0.95200000  0.51250000  0.35120000  0.00000000
H        H    0.35120000  0.95200000  0.51250000  0.00000000
H        H    0.48750000  0.64880000  0.04800000  0.00000000
H        H    0.04800000  0.48750000  0.64880000  0.00000000
H        H    0.51250000  0.35120000  0.95200000  0.00000000
C        C    0.64090000  0.03990000  0.52690000  0.00000000
C        C    0.96010000  0.47310000  0.35910000  0.00000000
C        C    0.35910000  0.96010000  0.47310000  0.00000000
C        C    0.52690000  0.64090000  0.03990000  0.00000000
C        C    0.03990000  0.52690000  0.64090000  0.00000000
C        C    0.47310000  0.35910000  0.96010000  0.00000000
C        C    0.61790000  0.03990000  0.55590000  0.00000000
C        C    0.96010000  0.44410000  0.38210000  0.00000000
C        C    0.38210000  0.96010000  0.44410000  0.00000000
C        C    0.55590000  0.61790000  0.03990000  0.00000000
C        C    0.03990000  0.55590000  0.61790000  0.00000000
C        C    0.44410000  0.38210000  0.96010000  0.00000000
H        H    0.62190000  0.03520000  0.56950000  0.00000000
H        H    0.96480000  0.43050000  0.37810000  0.00000000
H        H    0.37810000  0.96480000  0.43050000  0.00000000
H        H    0.56950000  0.62190000  0.03520000  0.00000000
H        H    0.03520000  0.56950000  0.62190000  0.00000000
H        H    0.43050000  0.37810000  0.96480000  0.00000000
C        C    0.58670000  0.04770000  0.56670000  0.00000000
C        C    0.95230000  0.43330000  0.41330000  0.00000000
C        C    0.41330000  0.95230000  0.43330000  0.00000000
C        C    0.56670000  0.58670000  0.04770000  0.00000000
C        C    0.04770000  0.56670000  0.58670000  0.00000000
C        C    0.43330000  0.41330000  0.95230000  0.00000000
H        H    0.57170000  0.04730000  0.58660000  0.00000000
H        H    0.95270000  0.41340000  0.42830000  0.00000000
H        H    0.42830000  0.95270000  0.41340000  0.00000000
H        H    0.58660000  0.57170000  0.04730000  0.00000000
H        H    0.04730000  0.58660000  0.57170000  0.00000000
H        H    0.41340000  0.42830000  0.95270000  0.00000000
C        C    0.58030000  0.05430000  0.54730000  0.00000000
C        C    0.94570000  0.45270000  0.41970000  0.00000000
C        C    0.41970000  0.94570000  0.45270000  0.00000000
C        C    0.54730000  0.58030000  0.05430000  0.00000000
C        C    0.05430000  0.54730000  0.58030000  0.00000000
C        C    0.45270000  0.41970000  0.94570000  0.00000000
C        C    0.53440000  0.08340000  0.53740000  0.00000000
C        C    0.91660000  0.46260000  0.46560000  0.00000000
C        C    0.46560000  0.91660000  0.46260000  0.00000000
C        C    0.53740000  0.53440000  0.08340000  0.00000000
C        C    0.08340000  0.53740000  0.53440000  0.00000000
C        C    0.46260000  0.46560000  0.91660000  0.00000000
H        H    0.54670000  0.09320000  0.51560000  0.00000000
H        H    0.90680000  0.48440000  0.45330000  0.00000000
H        H    0.45330000  0.90680000  0.48440000  0.00000000
H        H    0.51560000  0.54670000  0.09320000  0.00000000
H        H    0.09320000  0.51560000  0.54670000  0.00000000
H        H    0.48440000  0.45330000  0.90680000  0.00000000
C        C    0.54770000  0.06170000  0.55870000  0.00000000
C        C    0.93830000  0.44130000  0.45230000  0.00000000
C        C    0.45230000  0.93830000  0.44130000  0.00000000
C        C    0.55870000  0.54770000  0.06170000  0.00000000
C        C    0.06170000  0.55870000  0.54770000  0.00000000
C        C    0.44130000  0.45230000  0.93830000  0.00000000
C        C    0.52840000  0.04840000  0.59040000  0.00000000
C        C    0.95160000  0.40960000  0.47160000  0.00000000
C        C    0.47160000  0.95160000  0.40960000  0.00000000
C        C    0.59040000  0.52840000  0.04840000  0.00000000
C        C    0.04840000  0.59040000  0.52840000  0.00000000
C        C    0.40960000  0.47160000  0.95160000  0.00000000
H        H    0.53640000  0.03420000  0.60530000  0.00000000
H        H    0.96580000  0.39470000  0.46360000  0.00000000
H        H    0.46360000  0.96580000  0.39470000  0.00000000
H        H    0.60530000  0.53640000  0.03420000  0.00000000
H        H    0.03420000  0.60530000  0.53640000  0.00000000
H        H    0.39470000  0.46360000  0.96580000  0.00000000
C        C    0.49890000  0.05490000  0.59990000  0.00000000
C        C    0.94510000  0.40010000  0.50110000  0.00000000
C        C    0.50110000  0.94510000  0.40010000  0.00000000
C        C    0.59990000  0.49890000  0.05490000  0.00000000
C        C    0.05490000  0.59990000  0.49890000  0.00000000
C        C    0.40010000  0.50110000  0.94510000  0.00000000
H        H    0.48710000  0.04510000  0.62150000  0.00000000
H        H    0.95490000  0.37850000  0.51290000  0.00000000
H        H    0.51290000  0.95490000  0.37850000  0.00000000
H        H    0.62150000  0.48710000  0.04510000  0.00000000
H        H    0.04510000  0.62150000  0.48710000  0.00000000
H        H    0.37850000  0.51290000  0.95490000  0.00000000
C        C    0.48750000  0.07450000  0.57850000  0.00000000
C        C    0.92550000  0.42150000  0.51250000  0.00000000
C        C    0.51250000  0.92550000  0.42150000  0.00000000
C        C    0.57850000  0.48750000  0.07450000  0.00000000
C        C    0.07450000  0.57850000  0.48750000  0.00000000
C        C    0.42150000  0.51250000  0.92550000  0.00000000
C        C    0.50580000  0.08880000  0.54680000  0.00000000
C        C    0.91120000  0.45320000  0.49420000  0.00000000
C        C    0.49420000  0.91120000  0.45320000  0.00000000
C        C    0.54680000  0.50580000  0.08880000  0.00000000
C        C    0.08880000  0.54680000  0.50580000  0.00000000
C        C    0.45320000  0.49420000  0.91120000  0.00000000
H        H    0.49800000  0.10330000  0.53170000  0.00000000
H        H    0.89670000  0.46830000  0.50200000  0.00000000
H        H    0.50200000  0.89670000  0.46830000  0.00000000
H        H    0.53170000  0.49800000  0.10330000  0.00000000
H        H    0.10330000  0.53170000  0.49800000  0.00000000
H        H    0.46830000  0.50200000  0.89670000  0.00000000
C        C    0.45740000  0.08040000  0.58740000  0.00000000
C        C    0.91960000  0.41260000  0.54260000  0.00000000
C        C    0.54260000  0.91960000  0.41260000  0.00000000
C        C    0.58740000  0.45740000  0.08040000  0.00000000
C        C    0.08040000  0.58740000  0.45740000  0.00000000
C        C    0.41260000  0.54260000  0.91960000  0.00000000
C        C    0.67330000  0.03230000  0.51530000  0.00000000
C        C    0.96770000  0.48470000  0.32670000  0.00000000
C        C    0.32670000  0.96770000  0.48470000  0.00000000
C        C    0.51530000  0.67330000  0.03230000  0.00000000
C        C    0.03230000  0.51530000  0.67330000  0.00000000
C        C    0.48470000  0.32670000  0.96770000  0.00000000
C        C    0.00220000  0.46720000  0.00620000  0.00000000
C        C    0.53280000  0.99380000  0.99780000  0.00000000
C        C    0.99780000  0.53280000  0.99380000  0.00000000
C        C    0.00620000  0.00220000  0.46720000  0.00000000
C        C    0.46720000  0.00620000  0.00220000  0.00000000
C        C    0.99380000  0.99780000  0.53280000  0.00000000
H        H    0.02200000  0.46290000  0.98860000  0.00000000
H        H    0.53710000  0.01140000  0.97800000  0.00000000
H        H    0.97800000  0.53710000  0.01140000  0.00000000
H        H    0.98860000  0.02200000  0.46290000  0.00000000
H        H    0.46290000  0.98860000  0.02200000  0.00000000
H        H    0.01140000  0.97800000  0.53710000  0.00000000
C        C    0.98660000  0.44960000  0.02560000  0.00000000
C        C    0.55040000  0.97440000  0.01340000  0.00000000
C        C    0.01340000  0.55040000  0.97440000  0.00000000
C        C    0.02560000  0.98660000  0.44960000  0.00000000
C        C    0.44960000  0.02560000  0.98660000  0.00000000
C        C    0.97440000  0.01340000  0.55040000  0.00000000
H        H    0.99470000  0.43390000  0.02210000  0.00000000
H        H    0.56610000  0.97790000  0.00530000  0.00000000
H        H    0.00530000  0.56610000  0.97790000  0.00000000
H        H    0.02210000  0.99470000  0.43390000  0.00000000
H        H    0.43390000  0.02210000  0.99470000  0.00000000
H        H    0.97790000  0.00530000  0.56610000  0.00000000
C        C    0.95860000  0.45460000  0.05160000  0.00000000
C        C    0.54540000  0.94840000  0.04140000  0.00000000
C        C    0.04140000  0.54540000  0.94840000  0.00000000
C        C    0.05160000  0.95860000  0.45460000  0.00000000
C        C    0.45460000  0.05160000  0.95860000  0.00000000
C        C    0.94840000  0.04140000  0.54540000  0.00000000
C        C    0.94730000  0.47730000  0.05730000  0.00000000
C        C    0.52270000  0.94270000  0.05270000  0.00000000
C        C    0.05270000  0.52270000  0.94270000  0.00000000
C        C    0.05730000  0.94730000  0.47730000  0.00000000
C        C    0.47730000  0.05730000  0.94730000  0.00000000
C        C    0.94270000  0.05270000  0.52270000  0.00000000
H        H    0.92810000  0.48060000  0.07560000  0.00000000
H        H    0.51940000  0.92440000  0.07190000  0.00000000
H        H    0.07190000  0.51940000  0.92440000  0.00000000
H        H    0.07560000  0.92810000  0.48060000  0.00000000
H        H    0.48060000  0.07560000  0.92810000  0.00000000
H        H    0.92440000  0.07190000  0.51940000  0.00000000
C        C    0.96290000  0.49490000  0.03790000  0.00000000
C        C    0.50510000  0.96210000  0.03710000  0.00000000
C        C    0.03710000  0.50510000  0.96210000  0.00000000
C        C    0.03790000  0.96290000  0.49490000  0.00000000
C        C    0.49490000  0.03790000  0.96290000  0.00000000
C        C    0.96210000  0.03710000  0.50510000  0.00000000
H        H    0.95520000  0.50950000  0.04240000  0.00000000
H        H    0.49050000  0.95760000  0.04480000  0.00000000
H        H    0.04480000  0.49050000  0.95760000  0.00000000
H        H    0.04240000  0.95520000  0.50950000  0.00000000
H        H    0.50950000  0.04240000  0.95520000  0.00000000
H        H    0.95760000  0.04480000  0.49050000  0.00000000
C        C    0.99190000  0.48990000  0.01090000  0.00000000
C        C    0.51010000  0.98910000  0.00810000  0.00000000
C        C    0.00810000  0.51010000  0.98910000  0.00000000
C        C    0.01090000  0.99190000  0.48990000  0.00000000
C        C    0.48990000  0.01090000  0.99190000  0.00000000
C        C    0.98910000  0.00810000  0.51010000  0.00000000
C        C    0.99420000  0.46320000  0.53820000  0.00000000
C        C    0.53680000  0.46180000  0.00580000  0.00000000
C        C    0.00580000  0.53680000  0.46180000  0.00000000
C        C    0.53820000  0.99420000  0.46320000  0.00000000
C        C    0.46320000  0.53820000  0.99420000  0.00000000
C        C    0.46180000  0.00580000  0.53680000  0.00000000
H        H    0.00880000  0.45560000  0.54290000  0.00000000
H        H    0.54440000  0.45710000  0.99120000  0.00000000
H        H    0.99120000  0.54440000  0.45710000  0.00000000
H        H    0.54290000  0.00880000  0.45560000  0.00000000
H        H    0.45560000  0.54290000  0.00880000  0.00000000
H        H    0.45710000  0.99120000  0.54440000  0.00000000
C        C    0.97660000  0.44760000  0.55760000  0.00000000
C        C    0.55240000  0.44240000  0.02340000  0.00000000
C        C    0.02340000  0.55240000  0.44240000  0.00000000
C        C    0.55760000  0.97660000  0.44760000  0.00000000
C        C    0.44760000  0.55760000  0.97660000  0.00000000
C        C    0.44240000  0.02340000  0.55240000  0.00000000
H        H    0.98000000  0.42850000  0.57570000  0.00000000
H        H    0.57150000  0.42430000  0.02000000  0.00000000
H        H    0.02000000  0.57150000  0.42430000  0.00000000
H        H    0.57570000  0.98000000  0.42850000  0.00000000
H        H    0.42850000  0.57570000  0.98000000  0.00000000
H        H    0.42430000  0.02000000  0.57150000  0.00000000
C        C    0.95480000  0.45780000  0.55180000  0.00000000
C        C    0.54220000  0.44820000  0.04520000  0.00000000
C        C    0.04520000  0.54220000  0.44820000  0.00000000
C        C    0.55180000  0.95480000  0.45780000  0.00000000
C        C    0.45780000  0.55180000  0.95480000  0.00000000
C        C    0.44820000  0.04520000  0.54220000  0.00000000
C        C    0.94880000  0.48680000  0.52580000  0.00000000
C        C    0.51320000  0.47420000  0.05120000  0.00000000
C        C    0.05120000  0.51320000  0.47420000  0.00000000
C        C    0.52580000  0.94880000  0.48680000  0.00000000
C        C    0.48680000  0.52580000  0.94880000  0.00000000
C        C    0.47420000  0.05120000  0.51320000  0.00000000
H        H    0.93450000  0.49440000  0.52110000  0.00000000
H        H    0.50560000  0.47890000  0.06550000  0.00000000
H        H    0.06550000  0.50560000  0.47890000  0.00000000
H        H    0.52110000  0.93450000  0.49440000  0.00000000
H        H    0.49440000  0.52110000  0.93450000  0.00000000
H        H    0.47890000  0.06550000  0.50560000  0.00000000
C        C    0.96750000  0.50250000  0.50550000  0.00000000
C        C    0.49750000  0.49450000  0.03250000  0.00000000
C        C    0.03250000  0.49750000  0.49450000  0.00000000
C        C    0.50550000  0.96750000  0.50250000  0.00000000
C        C    0.50250000  0.50550000  0.96750000  0.00000000
C        C    0.49450000  0.03250000  0.49750000  0.00000000
H        H    0.96340000  0.52180000  0.48790000  0.00000000
H        H    0.47820000  0.51210000  0.03660000  0.00000000
H        H    0.03660000  0.47820000  0.51210000  0.00000000
H        H    0.48790000  0.96340000  0.52180000  0.00000000
H        H    0.52180000  0.48790000  0.96340000  0.00000000
H        H    0.51210000  0.03660000  0.47820000  0.00000000
C        C    0.99020000  0.49120000  0.51120000  0.00000000
C        C    0.50880000  0.48880000  0.00980000  0.00000000
C        C    0.00980000  0.50880000  0.48880000  0.00000000
C        C    0.51120000  0.99020000  0.49120000  0.00000000
C        C    0.49120000  0.51120000  0.99020000  0.00000000
C        C    0.48880000  0.00980000  0.50880000  0.00000000
C        C    0.93870000  0.43970000  0.57070000  0.00000000
C        C    0.56030000  0.42930000  0.06130000  0.00000000
C        C    0.06130000  0.56030000  0.42930000  0.00000000
C        C    0.57070000  0.93870000  0.43970000  0.00000000
C        C    0.43970000  0.57070000  0.93870000  0.00000000
C        C    0.42930000  0.06130000  0.56030000  0.00000000
C        C    0.95490000  0.47490000  0.27590000  0.00000000
C        C    0.52510000  0.72410000  0.04510000  0.00000000
C        C    0.04510000  0.52510000  0.72410000  0.00000000
C        C    0.27590000  0.95490000  0.47490000  0.00000000
C        C    0.47490000  0.27590000  0.95490000  0.00000000
C        C    0.72410000  0.04510000  0.52510000  0.00000000
C        C    0.60330000  0.05430000  0.51830000  0.00000000
C        C    0.94570000  0.48170000  0.39670000  0.00000000
C        C    0.39670000  0.94570000  0.48170000  0.00000000
C        C    0.51830000  0.60330000  0.05430000  0.00000000
C        C    0.05430000  0.51830000  0.60330000  0.00000000
C        C    0.48170000  0.39670000  0.94570000  0.00000000
H        H    0.59900000  0.05910000  0.50490000  0.00000000
H        H    0.94090000  0.49510000  0.40100000  0.00000000
H        H    0.40100000  0.94090000  0.49510000  0.00000000
H        H    0.50490000  0.59900000  0.05910000  0.00000000
H        H    0.05910000  0.50490000  0.59900000  0.00000000
H        H    0.49510000  0.40100000  0.94090000  0.00000000
