data_MOF-177

_cell_length_a  37.07200000
_cell_length_b  37.07200000
_cell_length_c  30.03330000
_cell_angle_alpha  90.00000000
_cell_angle_beta  90.00000000
_cell_angle_gamma  120.00000000


_symmetry_space_group_name_Hall ' P 1'
_symmetry_space_group_name_H-M  'P 1'
_symmetry_Int_Tables_number     1

loop_
_atom_site_label
_atom_site_type_symbol
_atom_site_fract_x
_atom_site_fract_y
_atom_site_fract_z
_atom_site_charge
Zn       Zn   0.14000000  0.84400000  0.19830000  0.00000000
Zn       Zn   0.15600000  0.29600000  0.19830000  0.00000000
Zn       Zn   0.70400000  0.86000000  0.19830000  0.00000000
Zn       Zn   0.14170000  0.77540000  0.26020000  0.00000000
Zn       Zn   0.22460000  0.36630000  0.26020000  0.00000000
Zn       Zn   0.63370000  0.85830000  0.26020000  0.00000000
O        O    0.86720000  0.62840000  0.82140000  0.00000000
O        O    0.37160000  0.23880000  0.82140000  0.00000000
O        O    0.76120000  0.13280000  0.82140000  0.00000000
O        O    0.86110000  0.68150000  0.85110000  0.00000000
O        O    0.31850000  0.17960000  0.85110000  0.00000000
O        O    0.82040000  0.13890000  0.85110000  0.00000000
O        O    0.74690000  0.41460000  0.22700000  0.00000000
O        O    0.58540000  0.33230000  0.22700000  0.00000000
O        O    0.66770000  0.25310000  0.22700000  0.00000000
O        O    0.71160000  0.38490000  0.16530000  0.00000000
O        O    0.61510000  0.32670000  0.16530000  0.00000000
O        O    0.67330000  0.28840000  0.16530000  0.00000000
O        O    0.09240000  0.73970000  0.22430000  0.00000000
O        O    0.26030000  0.35270000  0.22430000  0.00000000
O        O    0.64730000  0.90760000  0.22430000  0.00000000
O        O    0.09330000  0.78860000  0.18150000  0.00000000
O        O    0.21140000  0.30470000  0.18150000  0.00000000
O        O    0.69530000  0.90670000  0.18150000  0.00000000
O        O    0.12100000  0.88140000  0.21210000  0.00000000
O        O    0.11860000  0.23960000  0.21210000  0.00000000
O        O    0.76040000  0.87900000  0.21210000  0.00000000
O        O    0.18160000  0.75710000  0.24640000  0.00000000
O        O    0.24290000  0.42450000  0.24640000  0.00000000
O        O    0.57550000  0.81840000  0.24640000  0.00000000
C        C    0.89160000  0.61160000  0.03350000  0.00000000
C        C    0.38840000  0.28000000  0.03350000  0.00000000
C        C    0.72000000  0.10840000  0.03350000  0.00000000
C        C    0.86320000  0.57510000  0.05360000  0.00000000
C        C    0.42490000  0.28810000  0.05360000  0.00000000
C        C    0.71190000  0.13680000  0.05360000  0.00000000
C        C    0.86710000  0.56510000  0.09800000  0.00000000
C        C    0.43490000  0.30200000  0.09800000  0.00000000
C        C    0.69800000  0.13290000  0.09800000  0.00000000
C        C    0.90240000  0.59320000  0.12060000  0.00000000
C        C    0.40680000  0.30920000  0.12060000  0.00000000
C        C    0.69080000  0.09760000  0.12060000  0.00000000
C        C    0.93130000  0.63010000  0.10180000  0.00000000
C        C    0.36990000  0.30120000  0.10180000  0.00000000
C        C    0.69880000  0.06870000  0.10180000  0.00000000
C        C    0.92500000  0.63930000  0.05890000  0.00000000
C        C    0.36070000  0.28570000  0.05890000  0.00000000
C        C    0.71430000  0.07500000  0.05890000  0.00000000
C        C    0.83480000  0.52660000  0.11850000  0.00000000
C        C    0.47340000  0.30820000  0.11850000  0.00000000
C        C    0.69180000  0.16520000  0.11850000  0.00000000
C        C    0.79550000  0.50810000  0.10700000  0.00000000
C        C    0.49190000  0.28740000  0.10700000  0.00000000
C        C    0.71260000  0.20450000  0.10700000  0.00000000
C        C    0.76760000  0.47240000  0.12800000  0.00000000
C        C    0.52760000  0.29520000  0.12800000  0.00000000
C        C    0.70480000  0.23240000  0.12800000  0.00000000
C        C    0.77550000  0.45580000  0.16080000  0.00000000
C        C    0.54420000  0.31970000  0.16080000  0.00000000
C        C    0.68030000  0.22450000  0.16080000  0.00000000
C        C    0.81500000  0.47280000  0.17030000  0.00000000
C        C    0.52720000  0.34220000  0.17030000  0.00000000
C        C    0.65780000  0.18500000  0.17030000  0.00000000
C        C    0.84350000  0.50830000  0.14930000  0.00000000
C        C    0.49170000  0.33520000  0.14930000  0.00000000
C        C    0.66480000  0.15650000  0.14930000  0.00000000
C        C    0.96920000  0.66000000  0.12420000  0.00000000
C        C    0.34000000  0.30920000  0.12420000  0.00000000
C        C    0.69080000  0.03080000  0.12420000  0.00000000
C        C    0.98750000  0.65230000  0.15650000  0.00000000
C        C    0.34770000  0.33520000  0.15650000  0.00000000
C        C    0.66480000  0.01250000  0.15650000  0.00000000
C        C    0.02330000  0.68170000  0.17990000  0.00000000
C        C    0.31830000  0.34160000  0.17990000  0.00000000
C        C    0.65840000  0.97670000  0.17990000  0.00000000
C        C    0.04030000  0.71780000  0.17050000  0.00000000
C        C    0.28220000  0.32250000  0.17050000  0.00000000
C        C    0.67750000  0.95970000  0.17050000  0.00000000
C        C    0.02720000  0.72870000  0.13650000  0.00000000
C        C    0.27130000  0.29850000  0.13650000  0.00000000
C        C    0.70150000  0.97280000  0.13650000  0.00000000
C        C    0.99200000  0.69990000  0.11370000  0.00000000
C        C    0.30010000  0.29210000  0.11370000  0.00000000
C        C    0.70790000  0.00800000  0.11370000  0.00000000
C        C    0.88530000  0.61940000  0.98580000  0.00000000
C        C    0.38060000  0.26590000  0.98580000  0.00000000
C        C    0.73410000  0.11470000  0.98580000  0.00000000
C        C    0.89480000  0.65960000  0.97450000  0.00000000
C        C    0.34040000  0.23520000  0.97450000  0.00000000
C        C    0.76480000  0.10520000  0.97450000  0.00000000
C        C    0.86530000  0.60150000  0.91120000  0.00000000
C        C    0.39850000  0.26380000  0.91120000  0.00000000
C        C    0.73620000  0.13470000  0.91120000  0.00000000
C        C    0.87220000  0.64010000  0.90040000  0.00000000
C        C    0.35990000  0.23210000  0.90040000  0.00000000
C        C    0.76790000  0.12780000  0.90040000  0.00000000
C        C    0.86810000  0.59270000  0.95310000  0.00000000
C        C    0.40730000  0.27540000  0.95310000  0.00000000
C        C    0.72460000  0.13190000  0.95310000  0.00000000
C        C    0.86640000  0.64960000  0.85400000  0.00000000
C        C    0.35040000  0.21680000  0.85400000  0.00000000
C        C    0.78320000  0.13360000  0.85400000  0.00000000
C        C    0.74030000  0.41560000  0.18260000  0.00000000
C        C    0.58440000  0.32470000  0.18260000  0.00000000
C        C    0.67530000  0.25970000  0.18260000  0.00000000
C        C    0.07540000  0.74690000  0.19280000  0.00000000
C        C    0.25310000  0.32850000  0.19280000  0.00000000
C        C    0.67150000  0.92460000  0.19280000  0.00000000
C        C    0.07180000  0.95900000  0.28580000  0.00000000
C        C    0.04100000  0.11280000  0.28580000  0.00000000
C        C    0.88720000  0.92820000  0.28580000  0.00000000
C        C    0.09370000  0.93660000  0.28580000  0.00000000
C        C    0.06340000  0.15710000  0.28580000  0.00000000
C        C    0.84290000  0.90630000  0.28580000  0.00000000
C        C    0.24740000  0.69340000  0.23540000  0.00000000
C        C    0.30660000  0.55400000  0.23540000  0.00000000
C        C    0.44600000  0.75260000  0.23540000  0.00000000
C        C    0.22740000  0.71500000  0.23560000  0.00000000
C        C    0.28500000  0.51240000  0.23560000  0.00000000
C        C    0.48760000  0.77260000  0.23560000  0.00000000
C        C    0.88800000  0.66760000  0.92910000  0.00000000
C        C    0.33240000  0.22040000  0.92910000  0.00000000
C        C    0.77960000  0.11200000  0.92910000  0.00000000
Zn       Zn   0.71880000  0.37810000  0.27790000  0.00000000
Zn       Zn   0.62190000  0.34070000  0.27790000  0.00000000
Zn       Zn   0.65930000  0.28120000  0.27790000  0.00000000
Zn       Zn   0.15600000  0.86000000  0.30170000  0.00000000
Zn       Zn   0.14000000  0.29600000  0.30170000  0.00000000
Zn       Zn   0.70400000  0.84400000  0.30170000  0.00000000
Zn       Zn   0.22460000  0.85830000  0.23980000  0.00000000
Zn       Zn   0.14170000  0.36630000  0.23980000  0.00000000
Zn       Zn   0.63370000  0.77540000  0.23980000  0.00000000
O        O    0.76120000  0.62840000  0.67860000  0.00000000
O        O    0.37160000  0.13280000  0.67860000  0.00000000
O        O    0.86720000  0.23880000  0.67860000  0.00000000
O        O    0.82040000  0.68150000  0.64890000  0.00000000
O        O    0.31850000  0.13890000  0.64890000  0.00000000
O        O    0.86110000  0.17960000  0.64890000  0.00000000
O        O    0.63380000  0.39530000  0.30070000  0.00000000
O        O    0.60470000  0.23850000  0.30070000  0.00000000
O        O    0.76150000  0.36620000  0.30070000  0.00000000
O        O    0.71180000  0.41780000  0.31020000  0.00000000
O        O    0.58220000  0.29400000  0.31020000  0.00000000
O        O    0.70600000  0.28820000  0.31020000  0.00000000
O        O    0.26030000  0.90760000  0.27570000  0.00000000
O        O    0.09240000  0.35270000  0.27570000  0.00000000
O        O    0.64730000  0.73970000  0.27570000  0.00000000
O        O    0.21140000  0.90670000  0.31850000  0.00000000
O        O    0.09330000  0.30470000  0.31850000  0.00000000
O        O    0.69530000  0.78860000  0.31850000  0.00000000
O        O    0.11860000  0.87900000  0.28790000  0.00000000
O        O    0.12100000  0.23960000  0.28790000  0.00000000
O        O    0.76040000  0.88140000  0.28790000  0.00000000
O        O    0.24290000  0.81840000  0.25360000  0.00000000
O        O    0.18160000  0.42450000  0.25360000  0.00000000
O        O    0.57550000  0.75710000  0.25360000  0.00000000
C        C    0.72000000  0.61160000  0.46650000  0.00000000
C        C    0.38840000  0.10840000  0.46650000  0.00000000
C        C    0.89160000  0.28000000  0.46650000  0.00000000
C        C    0.71190000  0.57510000  0.44640000  0.00000000
C        C    0.42490000  0.13680000  0.44640000  0.00000000
C        C    0.86320000  0.28810000  0.44640000  0.00000000
C        C    0.69800000  0.56510000  0.40200000  0.00000000
C        C    0.43490000  0.13290000  0.40200000  0.00000000
C        C    0.86710000  0.30200000  0.40200000  0.00000000
C        C    0.69080000  0.59320000  0.37940000  0.00000000
C        C    0.40680000  0.09760000  0.37940000  0.00000000
C        C    0.90240000  0.30920000  0.37940000  0.00000000
C        C    0.69880000  0.63010000  0.39820000  0.00000000
C        C    0.36990000  0.06870000  0.39820000  0.00000000
C        C    0.93130000  0.30120000  0.39820000  0.00000000
C        C    0.71430000  0.63930000  0.44110000  0.00000000
C        C    0.36070000  0.07500000  0.44110000  0.00000000
C        C    0.92500000  0.28570000  0.44110000  0.00000000
C        C    0.69180000  0.52660000  0.38150000  0.00000000
C        C    0.47340000  0.16520000  0.38150000  0.00000000
C        C    0.83480000  0.30820000  0.38150000  0.00000000
C        C    0.71260000  0.50810000  0.39300000  0.00000000
C        C    0.49190000  0.20450000  0.39300000  0.00000000
C        C    0.79550000  0.28740000  0.39300000  0.00000000
C        C    0.70480000  0.47240000  0.37200000  0.00000000
C        C    0.52760000  0.23240000  0.37200000  0.00000000
C        C    0.76760000  0.29520000  0.37200000  0.00000000
C        C    0.68030000  0.45580000  0.33920000  0.00000000
C        C    0.54420000  0.22450000  0.33920000  0.00000000
C        C    0.77550000  0.31970000  0.33920000  0.00000000
C        C    0.65780000  0.47280000  0.32970000  0.00000000
C        C    0.52720000  0.18500000  0.32970000  0.00000000
C        C    0.81500000  0.34220000  0.32970000  0.00000000
C        C    0.66480000  0.50830000  0.35070000  0.00000000
C        C    0.49170000  0.15650000  0.35070000  0.00000000
C        C    0.84350000  0.33520000  0.35070000  0.00000000
C        C    0.69080000  0.66000000  0.37580000  0.00000000
C        C    0.34000000  0.03080000  0.37580000  0.00000000
C        C    0.96920000  0.30920000  0.37580000  0.00000000
C        C    0.66480000  0.65230000  0.34350000  0.00000000
C        C    0.34770000  0.01250000  0.34350000  0.00000000
C        C    0.98750000  0.33520000  0.34350000  0.00000000
C        C    0.31830000  0.97670000  0.32010000  0.00000000
C        C    0.02330000  0.34160000  0.32010000  0.00000000
C        C    0.65840000  0.68170000  0.32010000  0.00000000
C        C    0.28220000  0.95970000  0.32950000  0.00000000
C        C    0.04030000  0.32250000  0.32950000  0.00000000
C        C    0.67750000  0.71780000  0.32950000  0.00000000
C        C    0.27130000  0.97280000  0.36350000  0.00000000
C        C    0.02720000  0.29850000  0.36350000  0.00000000
C        C    0.70150000  0.72870000  0.36350000  0.00000000
C        C    0.70790000  0.69990000  0.38630000  0.00000000
C        C    0.30010000  0.00800000  0.38630000  0.00000000
C        C    0.99200000  0.29210000  0.38630000  0.00000000
C        C    0.73410000  0.61940000  0.51420000  0.00000000
C        C    0.38060000  0.11470000  0.51420000  0.00000000
C        C    0.88530000  0.26590000  0.51420000  0.00000000
C        C    0.76480000  0.65960000  0.52550000  0.00000000
C        C    0.34040000  0.10520000  0.52550000  0.00000000
C        C    0.89480000  0.23520000  0.52550000  0.00000000
C        C    0.73620000  0.60150000  0.58880000  0.00000000
C        C    0.39850000  0.13470000  0.58880000  0.00000000
C        C    0.86530000  0.26380000  0.58880000  0.00000000
C        C    0.76790000  0.64010000  0.59960000  0.00000000
C        C    0.35990000  0.12780000  0.59960000  0.00000000
C        C    0.87220000  0.23210000  0.59960000  0.00000000
C        C    0.72460000  0.59270000  0.54690000  0.00000000
C        C    0.40730000  0.13190000  0.54690000  0.00000000
C        C    0.86810000  0.27540000  0.54690000  0.00000000
C        C    0.78320000  0.64960000  0.64600000  0.00000000
C        C    0.35040000  0.13360000  0.64600000  0.00000000
C        C    0.86640000  0.21680000  0.64600000  0.00000000
C        C    0.67530000  0.41560000  0.31740000  0.00000000
C        C    0.58440000  0.25970000  0.31740000  0.00000000
C        C    0.74030000  0.32470000  0.31740000  0.00000000
C        C    0.25310000  0.92460000  0.30720000  0.00000000
C        C    0.07540000  0.32850000  0.30720000  0.00000000
C        C    0.67150000  0.74690000  0.30720000  0.00000000
C        C    0.04100000  0.92820000  0.21420000  0.00000000
C        C    0.07180000  0.11280000  0.21420000  0.00000000
C        C    0.88720000  0.95900000  0.21420000  0.00000000
C        C    0.06340000  0.90630000  0.21420000  0.00000000
C        C    0.09370000  0.15710000  0.21420000  0.00000000
C        C    0.84290000  0.93660000  0.21420000  0.00000000
C        C    0.30660000  0.75260000  0.26460000  0.00000000
C        C    0.24740000  0.55400000  0.26460000  0.00000000
C        C    0.44600000  0.69340000  0.26460000  0.00000000
C        C    0.28500000  0.77260000  0.26440000  0.00000000
C        C    0.22740000  0.51240000  0.26440000  0.00000000
C        C    0.48760000  0.71500000  0.26440000  0.00000000
C        C    0.77960000  0.66760000  0.57090000  0.00000000
C        C    0.33240000  0.11200000  0.57090000  0.00000000
C        C    0.88800000  0.22040000  0.57090000  0.00000000
Zn       Zn   0.28120000  0.65930000  0.77790000  0.00000000
Zn       Zn   0.34070000  0.62190000  0.77790000  0.00000000
Zn       Zn   0.37810000  0.71880000  0.77790000  0.00000000
Zn       Zn   0.84400000  0.70400000  0.80170000  0.00000000
Zn       Zn   0.29600000  0.14000000  0.80170000  0.00000000
Zn       Zn   0.86000000  0.15600000  0.80170000  0.00000000
Zn       Zn   0.77540000  0.63370000  0.73980000  0.00000000
Zn       Zn   0.36630000  0.14170000  0.73980000  0.00000000
Zn       Zn   0.85830000  0.22460000  0.73980000  0.00000000
O        O    0.23880000  0.86720000  0.17860000  0.00000000
O        O    0.13280000  0.37160000  0.17860000  0.00000000
O        O    0.62840000  0.76120000  0.17860000  0.00000000
O        O    0.17960000  0.86110000  0.14890000  0.00000000
O        O    0.13890000  0.31850000  0.14890000  0.00000000
O        O    0.68150000  0.82040000  0.14890000  0.00000000
O        O    0.36620000  0.76150000  0.80070000  0.00000000
O        O    0.23850000  0.60470000  0.80070000  0.00000000
O        O    0.39530000  0.63380000  0.80070000  0.00000000
O        O    0.28820000  0.70600000  0.81020000  0.00000000
O        O    0.29400000  0.58220000  0.81020000  0.00000000
O        O    0.41780000  0.71180000  0.81020000  0.00000000
O        O    0.73970000  0.64730000  0.77570000  0.00000000
O        O    0.35270000  0.09240000  0.77570000  0.00000000
O        O    0.90760000  0.26030000  0.77570000  0.00000000
O        O    0.78860000  0.69530000  0.81850000  0.00000000
O        O    0.30470000  0.09330000  0.81850000  0.00000000
O        O    0.90670000  0.21140000  0.81850000  0.00000000
O        O    0.88140000  0.76040000  0.78790000  0.00000000
O        O    0.23960000  0.12100000  0.78790000  0.00000000
O        O    0.87900000  0.11860000  0.78790000  0.00000000
O        O    0.75710000  0.57550000  0.75360000  0.00000000
O        O    0.42450000  0.18160000  0.75360000  0.00000000
O        O    0.81840000  0.24290000  0.75360000  0.00000000
C        C    0.28000000  0.89160000  0.96650000  0.00000000
C        C    0.10840000  0.38840000  0.96650000  0.00000000
C        C    0.61160000  0.72000000  0.96650000  0.00000000
C        C    0.28810000  0.86320000  0.94640000  0.00000000
C        C    0.13680000  0.42490000  0.94640000  0.00000000
C        C    0.57510000  0.71190000  0.94640000  0.00000000
C        C    0.30200000  0.86710000  0.90200000  0.00000000
C        C    0.13290000  0.43490000  0.90200000  0.00000000
C        C    0.56510000  0.69800000  0.90200000  0.00000000
C        C    0.30920000  0.90240000  0.87940000  0.00000000
C        C    0.09760000  0.40680000  0.87940000  0.00000000
C        C    0.59320000  0.69080000  0.87940000  0.00000000
C        C    0.30120000  0.93130000  0.89820000  0.00000000
C        C    0.06870000  0.36990000  0.89820000  0.00000000
C        C    0.63010000  0.69880000  0.89820000  0.00000000
C        C    0.28570000  0.92500000  0.94110000  0.00000000
C        C    0.07500000  0.36070000  0.94110000  0.00000000
C        C    0.63930000  0.71430000  0.94110000  0.00000000
C        C    0.30820000  0.83480000  0.88150000  0.00000000
C        C    0.16520000  0.47340000  0.88150000  0.00000000
C        C    0.52660000  0.69180000  0.88150000  0.00000000
C        C    0.28740000  0.79550000  0.89300000  0.00000000
C        C    0.20450000  0.49190000  0.89300000  0.00000000
C        C    0.50810000  0.71260000  0.89300000  0.00000000
C        C    0.29520000  0.76760000  0.87200000  0.00000000
C        C    0.23240000  0.52760000  0.87200000  0.00000000
C        C    0.47240000  0.70480000  0.87200000  0.00000000
C        C    0.31970000  0.77550000  0.83920000  0.00000000
C        C    0.22450000  0.54420000  0.83920000  0.00000000
C        C    0.45580000  0.68030000  0.83920000  0.00000000
C        C    0.34220000  0.81500000  0.82970000  0.00000000
C        C    0.18500000  0.52720000  0.82970000  0.00000000
C        C    0.47280000  0.65780000  0.82970000  0.00000000
C        C    0.33520000  0.84350000  0.85070000  0.00000000
C        C    0.15650000  0.49170000  0.85070000  0.00000000
C        C    0.50830000  0.66480000  0.85070000  0.00000000
C        C    0.30920000  0.96920000  0.87580000  0.00000000
C        C    0.03080000  0.34000000  0.87580000  0.00000000
C        C    0.66000000  0.69080000  0.87580000  0.00000000
C        C    0.33520000  0.98750000  0.84350000  0.00000000
C        C    0.01250000  0.34770000  0.84350000  0.00000000
C        C    0.65230000  0.66480000  0.84350000  0.00000000
C        C    0.68170000  0.65840000  0.82010000  0.00000000
C        C    0.34160000  0.02330000  0.82010000  0.00000000
C        C    0.97670000  0.31830000  0.82010000  0.00000000
C        C    0.71780000  0.67750000  0.82950000  0.00000000
C        C    0.32250000  0.04030000  0.82950000  0.00000000
C        C    0.95970000  0.28220000  0.82950000  0.00000000
C        C    0.72870000  0.70150000  0.86350000  0.00000000
C        C    0.29850000  0.02720000  0.86350000  0.00000000
C        C    0.97280000  0.27130000  0.86350000  0.00000000
C        C    0.29210000  0.99200000  0.88630000  0.00000000
C        C    0.00800000  0.30010000  0.88630000  0.00000000
C        C    0.69990000  0.70790000  0.88630000  0.00000000
C        C    0.26590000  0.88530000  0.01420000  0.00000000
C        C    0.11470000  0.38060000  0.01420000  0.00000000
C        C    0.61940000  0.73410000  0.01420000  0.00000000
C        C    0.23520000  0.89480000  0.02550000  0.00000000
C        C    0.10520000  0.34040000  0.02550000  0.00000000
C        C    0.65960000  0.76480000  0.02550000  0.00000000
C        C    0.26380000  0.86530000  0.08880000  0.00000000
C        C    0.13470000  0.39850000  0.08880000  0.00000000
C        C    0.60150000  0.73620000  0.08880000  0.00000000
C        C    0.23210000  0.87220000  0.09960000  0.00000000
C        C    0.12780000  0.35990000  0.09960000  0.00000000
C        C    0.64010000  0.76790000  0.09960000  0.00000000
C        C    0.27540000  0.86810000  0.04690000  0.00000000
C        C    0.13190000  0.40730000  0.04690000  0.00000000
C        C    0.59270000  0.72460000  0.04690000  0.00000000
C        C    0.21680000  0.86640000  0.14600000  0.00000000
C        C    0.13360000  0.35040000  0.14600000  0.00000000
C        C    0.64960000  0.78320000  0.14600000  0.00000000
C        C    0.32470000  0.74030000  0.81740000  0.00000000
C        C    0.25970000  0.58440000  0.81740000  0.00000000
C        C    0.41560000  0.67530000  0.81740000  0.00000000
C        C    0.74690000  0.67150000  0.80720000  0.00000000
C        C    0.32850000  0.07540000  0.80720000  0.00000000
C        C    0.92460000  0.25310000  0.80720000  0.00000000
C        C    0.95900000  0.88720000  0.71420000  0.00000000
C        C    0.11280000  0.07180000  0.71420000  0.00000000
C        C    0.92820000  0.04100000  0.71420000  0.00000000
C        C    0.93660000  0.84290000  0.71420000  0.00000000
C        C    0.15710000  0.09370000  0.71420000  0.00000000
C        C    0.90630000  0.06340000  0.71420000  0.00000000
C        C    0.69340000  0.44600000  0.76460000  0.00000000
C        C    0.55400000  0.24740000  0.76460000  0.00000000
C        C    0.75260000  0.30660000  0.76460000  0.00000000
C        C    0.71500000  0.48760000  0.76440000  0.00000000
C        C    0.51240000  0.22740000  0.76440000  0.00000000
C        C    0.77260000  0.28500000  0.76440000  0.00000000
C        C    0.22040000  0.88800000  0.07090000  0.00000000
C        C    0.11200000  0.33240000  0.07090000  0.00000000
C        C    0.66760000  0.77960000  0.07090000  0.00000000
Zn       Zn   0.86000000  0.70400000  0.69830000  0.00000000
Zn       Zn   0.29600000  0.15600000  0.69830000  0.00000000
Zn       Zn   0.84400000  0.14000000  0.69830000  0.00000000
Zn       Zn   0.85830000  0.63370000  0.76020000  0.00000000
Zn       Zn   0.36630000  0.22460000  0.76020000  0.00000000
Zn       Zn   0.77540000  0.14170000  0.76020000  0.00000000
O        O    0.13280000  0.76120000  0.32140000  0.00000000
O        O    0.23880000  0.37160000  0.32140000  0.00000000
O        O    0.62840000  0.86720000  0.32140000  0.00000000
O        O    0.13890000  0.82040000  0.35110000  0.00000000
O        O    0.17960000  0.31850000  0.35110000  0.00000000
O        O    0.68150000  0.86110000  0.35110000  0.00000000
O        O    0.25310000  0.66770000  0.72700000  0.00000000
O        O    0.33230000  0.58540000  0.72700000  0.00000000
O        O    0.41460000  0.74690000  0.72700000  0.00000000
O        O    0.28840000  0.67330000  0.66530000  0.00000000
O        O    0.32670000  0.61510000  0.66530000  0.00000000
O        O    0.38490000  0.71160000  0.66530000  0.00000000
O        O    0.90760000  0.64730000  0.72430000  0.00000000
O        O    0.35270000  0.26030000  0.72430000  0.00000000
O        O    0.73970000  0.09240000  0.72430000  0.00000000
O        O    0.90670000  0.69530000  0.68150000  0.00000000
O        O    0.30470000  0.21140000  0.68150000  0.00000000
O        O    0.78860000  0.09330000  0.68150000  0.00000000
O        O    0.87900000  0.76040000  0.71210000  0.00000000
O        O    0.23960000  0.11860000  0.71210000  0.00000000
O        O    0.88140000  0.12100000  0.71210000  0.00000000
O        O    0.81840000  0.57550000  0.74640000  0.00000000
O        O    0.42450000  0.24290000  0.74640000  0.00000000
O        O    0.75710000  0.18160000  0.74640000  0.00000000
C        C    0.10840000  0.72000000  0.53350000  0.00000000
C        C    0.28000000  0.38840000  0.53350000  0.00000000
C        C    0.61160000  0.89160000  0.53350000  0.00000000
C        C    0.13680000  0.71190000  0.55360000  0.00000000
C        C    0.28810000  0.42490000  0.55360000  0.00000000
C        C    0.57510000  0.86320000  0.55360000  0.00000000
C        C    0.13290000  0.69800000  0.59800000  0.00000000
C        C    0.30200000  0.43490000  0.59800000  0.00000000
C        C    0.56510000  0.86710000  0.59800000  0.00000000
C        C    0.09760000  0.69080000  0.62060000  0.00000000
C        C    0.30920000  0.40680000  0.62060000  0.00000000
C        C    0.59320000  0.90240000  0.62060000  0.00000000
C        C    0.06870000  0.69880000  0.60180000  0.00000000
C        C    0.30120000  0.36990000  0.60180000  0.00000000
C        C    0.63010000  0.93130000  0.60180000  0.00000000
C        C    0.07500000  0.71430000  0.55890000  0.00000000
C        C    0.28570000  0.36070000  0.55890000  0.00000000
C        C    0.63930000  0.92500000  0.55890000  0.00000000
C        C    0.16520000  0.69180000  0.61850000  0.00000000
C        C    0.30820000  0.47340000  0.61850000  0.00000000
C        C    0.52660000  0.83480000  0.61850000  0.00000000
C        C    0.20450000  0.71260000  0.60700000  0.00000000
C        C    0.28740000  0.49190000  0.60700000  0.00000000
C        C    0.50810000  0.79550000  0.60700000  0.00000000
C        C    0.23240000  0.70480000  0.62800000  0.00000000
C        C    0.29520000  0.52760000  0.62800000  0.00000000
C        C    0.47240000  0.76760000  0.62800000  0.00000000
C        C    0.22450000  0.68030000  0.66080000  0.00000000
C        C    0.31970000  0.54420000  0.66080000  0.00000000
C        C    0.45580000  0.77550000  0.66080000  0.00000000
C        C    0.18500000  0.65780000  0.67030000  0.00000000
C        C    0.34220000  0.52720000  0.67030000  0.00000000
C        C    0.47280000  0.81500000  0.67030000  0.00000000
C        C    0.15650000  0.66480000  0.64930000  0.00000000
C        C    0.33520000  0.49170000  0.64930000  0.00000000
C        C    0.50830000  0.84350000  0.64930000  0.00000000
C        C    0.03080000  0.69080000  0.62420000  0.00000000
C        C    0.30920000  0.34000000  0.62420000  0.00000000
C        C    0.66000000  0.96920000  0.62420000  0.00000000
C        C    0.01250000  0.66480000  0.65650000  0.00000000
C        C    0.33520000  0.34770000  0.65650000  0.00000000
C        C    0.65230000  0.98750000  0.65650000  0.00000000
C        C    0.97670000  0.65840000  0.67990000  0.00000000
C        C    0.34160000  0.31830000  0.67990000  0.00000000
C        C    0.68170000  0.02330000  0.67990000  0.00000000
C        C    0.95970000  0.67750000  0.67050000  0.00000000
C        C    0.32250000  0.28220000  0.67050000  0.00000000
C        C    0.71780000  0.04030000  0.67050000  0.00000000
C        C    0.97280000  0.70150000  0.63650000  0.00000000
C        C    0.29850000  0.27130000  0.63650000  0.00000000
C        C    0.72870000  0.02720000  0.63650000  0.00000000
C        C    0.00800000  0.70790000  0.61370000  0.00000000
C        C    0.29210000  0.30010000  0.61370000  0.00000000
C        C    0.69990000  0.99200000  0.61370000  0.00000000
C        C    0.11470000  0.73410000  0.48580000  0.00000000
C        C    0.26590000  0.38060000  0.48580000  0.00000000
C        C    0.61940000  0.88530000  0.48580000  0.00000000
C        C    0.10520000  0.76480000  0.47450000  0.00000000
C        C    0.23520000  0.34040000  0.47450000  0.00000000
C        C    0.65960000  0.89480000  0.47450000  0.00000000
C        C    0.13470000  0.73620000  0.41120000  0.00000000
C        C    0.26380000  0.39850000  0.41120000  0.00000000
C        C    0.60150000  0.86530000  0.41120000  0.00000000
C        C    0.12780000  0.76790000  0.40040000  0.00000000
C        C    0.23210000  0.35990000  0.40040000  0.00000000
C        C    0.64010000  0.87220000  0.40040000  0.00000000
C        C    0.13190000  0.72460000  0.45310000  0.00000000
C        C    0.27540000  0.40730000  0.45310000  0.00000000
C        C    0.59270000  0.86810000  0.45310000  0.00000000
C        C    0.13360000  0.78320000  0.35400000  0.00000000
C        C    0.21680000  0.35040000  0.35400000  0.00000000
C        C    0.64960000  0.86640000  0.35400000  0.00000000
C        C    0.25970000  0.67530000  0.68260000  0.00000000
C        C    0.32470000  0.58440000  0.68260000  0.00000000
C        C    0.41560000  0.74030000  0.68260000  0.00000000
C        C    0.92460000  0.67150000  0.69280000  0.00000000
C        C    0.32850000  0.25310000  0.69280000  0.00000000
C        C    0.74690000  0.07540000  0.69280000  0.00000000
C        C    0.92820000  0.88720000  0.78580000  0.00000000
C        C    0.11280000  0.04100000  0.78580000  0.00000000
C        C    0.95900000  0.07180000  0.78580000  0.00000000
C        C    0.90630000  0.84290000  0.78580000  0.00000000
C        C    0.15710000  0.06340000  0.78580000  0.00000000
C        C    0.93660000  0.09370000  0.78580000  0.00000000
C        C    0.75260000  0.44600000  0.73540000  0.00000000
C        C    0.55400000  0.30660000  0.73540000  0.00000000
C        C    0.69340000  0.24740000  0.73540000  0.00000000
C        C    0.77260000  0.48760000  0.73560000  0.00000000
C        C    0.51240000  0.28500000  0.73560000  0.00000000
C        C    0.71500000  0.22740000  0.73560000  0.00000000
C        C    0.11200000  0.77960000  0.42910000  0.00000000
C        C    0.22040000  0.33240000  0.42910000  0.00000000
C        C    0.66760000  0.88800000  0.42910000  0.00000000
Zn       Zn   0.66666000  0.33333000  0.19040000  0.00000000
Zn       Zn   0.33333000  0.66666000  0.69040000  0.00000000
O        O    0.16645000  0.83355000  0.25000000  0.00000000
O        O    0.16645000  0.33290000  0.25000000  0.00000000
O        O    0.66710000  0.83355000  0.25000000  0.00000000
C        C    0.02165000  0.97835000  0.25000000  0.00000000
C        C    0.02165000  0.04330000  0.25000000  0.00000000
C        C    0.95670000  0.97835000  0.25000000  0.00000000
C        C    0.04535000  0.95465000  0.25000000  0.00000000
C        C    0.04535000  0.09070000  0.25000000  0.00000000
C        C    0.90930000  0.95465000  0.25000000  0.00000000
C        C    0.08880000  0.91120000  0.25000000  0.00000000
C        C    0.08880000  0.17760000  0.25000000  0.00000000
C        C    0.82240000  0.91120000  0.25000000  0.00000000
C        C    0.11045000  0.88955000  0.25000000  0.00000000
C        C    0.11045000  0.22090000  0.25000000  0.00000000
C        C    0.77910000  0.88955000  0.25000000  0.00000000
C        C    0.31195000  0.68805000  0.25000000  0.00000000
C        C    0.31195000  0.62390000  0.25000000  0.00000000
C        C    0.37610000  0.68805000  0.25000000  0.00000000
C        C    0.28780000  0.71220000  0.25000000  0.00000000
C        C    0.28780000  0.57560000  0.25000000  0.00000000
C        C    0.42440000  0.71220000  0.25000000  0.00000000
C        C    0.24505000  0.75495000  0.25000000  0.00000000
C        C    0.24505000  0.49010000  0.25000000  0.00000000
C        C    0.50990000  0.75495000  0.25000000  0.00000000
C        C    0.22155000  0.77845000  0.25000000  0.00000000
C        C    0.22155000  0.44310000  0.25000000  0.00000000
C        C    0.55690000  0.77845000  0.25000000  0.00000000
O        O    0.83355000  0.66710000  0.75000000  0.00000000
O        O    0.33290000  0.16645000  0.75000000  0.00000000
O        O    0.83355000  0.16645000  0.75000000  0.00000000
C        C    0.97835000  0.95670000  0.75000000  0.00000000
C        C    0.04330000  0.02165000  0.75000000  0.00000000
C        C    0.97835000  0.02165000  0.75000000  0.00000000
C        C    0.95465000  0.90930000  0.75000000  0.00000000
C        C    0.09070000  0.04535000  0.75000000  0.00000000
C        C    0.95465000  0.04535000  0.75000000  0.00000000
C        C    0.91120000  0.82240000  0.75000000  0.00000000
C        C    0.17760000  0.08880000  0.75000000  0.00000000
C        C    0.91120000  0.08880000  0.75000000  0.00000000
C        C    0.88955000  0.77910000  0.75000000  0.00000000
C        C    0.22090000  0.11045000  0.75000000  0.00000000
C        C    0.88955000  0.11045000  0.75000000  0.00000000
C        C    0.68805000  0.37610000  0.75000000  0.00000000
C        C    0.62390000  0.31195000  0.75000000  0.00000000
C        C    0.68805000  0.31195000  0.75000000  0.00000000
C        C    0.71220000  0.42440000  0.75000000  0.00000000
C        C    0.57560000  0.28780000  0.75000000  0.00000000
C        C    0.71220000  0.28780000  0.75000000  0.00000000
C        C    0.75495000  0.50990000  0.75000000  0.00000000
C        C    0.49010000  0.24505000  0.75000000  0.00000000
C        C    0.75495000  0.24505000  0.75000000  0.00000000
C        C    0.77845000  0.55690000  0.75000000  0.00000000
C        C    0.44310000  0.22155000  0.75000000  0.00000000
C        C    0.77845000  0.22155000  0.75000000  0.00000000
O        O    0.66666000  0.33333000  0.25000000  0.00000000
O        O    0.33333000  0.66666000  0.75000000  0.00000000
C        C    0.97860000  0.95720000  0.25000000  0.00000000
C        C    0.04280000  0.02140000  0.25000000  0.00000000
C        C    0.97860000  0.02140000  0.25000000  0.00000000
C        C    0.02140000  0.97860000  0.75000000  0.00000000
C        C    0.02140000  0.04280000  0.75000000  0.00000000
C        C    0.95720000  0.97860000  0.75000000  0.00000000
C        C    0.28960000  0.64480000  0.25000000  0.00000000
C        C    0.35520000  0.64480000  0.25000000  0.00000000
C        C    0.35520000  0.71040000  0.25000000  0.00000000
C        C    0.71040000  0.35520000  0.75000000  0.00000000
C        C    0.64480000  0.35520000  0.75000000  0.00000000
C        C    0.64480000  0.28960000  0.75000000  0.00000000
H        H    0.83478000  0.55112000  0.03430000  0.00000000
H        H    0.44888000  0.28366000  0.03430000  0.00000000
H        H    0.71634000  0.16522000  0.03430000  0.00000000
H        H    0.90815000  0.58599000  0.15593000  0.00000000
H        H    0.41401000  0.32216000  0.15593000  0.00000000
H        H    0.67784000  0.09185000  0.15593000  0.00000000
H        H    0.94854000  0.67099000  0.04466000  0.00000000
H        H    0.32901000  0.27755000  0.04466000  0.00000000
H        H    0.72245000  0.05146000  0.04466000  0.00000000
H        H    0.78486000  0.52192000  0.07955000  0.00000000
H        H    0.47808000  0.26294000  0.07955000  0.00000000
H        H    0.73706000  0.21514000  0.07955000  0.00000000
H        H    0.73381000  0.45471000  0.11638000  0.00000000
H        H    0.54529000  0.27910000  0.11638000  0.00000000
H        H    0.72090000  0.26619000  0.11638000  0.00000000
H        H    0.82589000  0.45795000  0.19634000  0.00000000
H        H    0.54205000  0.36794000  0.19634000  0.00000000
H        H    0.63206000  0.17411000  0.19634000  0.00000000
H        H    0.87708000  0.52167000  0.16090000  0.00000000
H        H    0.47833000  0.35541000  0.16090000  0.00000000
H        H    0.64459000  0.12292000  0.16090000  0.00000000
H        H    0.97477000  0.61897000  0.16864000  0.00000000
H        H    0.38103000  0.35580000  0.16864000  0.00000000
H        H    0.64420000  0.02523000  0.16864000  0.00000000
H        H    0.03631000  0.67105000  0.20817000  0.00000000
H        H    0.32895000  0.36526000  0.20817000  0.00000000
H        H    0.63474000  0.96369000  0.20817000  0.00000000
H        H    0.04455000  0.76244000  0.12467000  0.00000000
H        H    0.23756000  0.28211000  0.12467000  0.00000000
H        H    0.71789000  0.95545000  0.12467000  0.00000000
H        H    0.98310000  0.71284000  0.08388000  0.00000000
H        H    0.28716000  0.27026000  0.08388000  0.00000000
H        H    0.72974000  0.01690000  0.08388000  0.00000000
H        H    0.90759000  0.68520000  0.00080000  0.00000000
H        H    0.31480000  0.22239000  0.00080000  0.00000000
H        H    0.77761000  0.09241000  0.00080000  0.00000000
H        H    0.85718000  0.57711000  0.88408000  0.00000000
H        H    0.42289000  0.28007000  0.88408000  0.00000000
H        H    0.71993000  0.14282000  0.88408000  0.00000000
H        H    0.85360000  0.55790000  0.95971000  0.00000000
H        H    0.44210000  0.29570000  0.95971000  0.00000000
H        H    0.70430000  0.14640000  0.95971000  0.00000000
H        H    0.07566000  0.98049000  0.31480000  0.00000000
H        H    0.01951000  0.09517000  0.31480000  0.00000000
H        H    0.90483000  0.92434000  0.31480000  0.00000000
H        H    0.11478000  0.93983000  0.31498000  0.00000000
H        H    0.06017000  0.17495000  0.31498000  0.00000000
H        H    0.82505000  0.88522000  0.31498000  0.00000000
H        H    0.23130000  0.65976000  0.22329000  0.00000000
H        H    0.34024000  0.57154000  0.22329000  0.00000000
H        H    0.42846000  0.76870000  0.22329000  0.00000000
H        H    0.19388000  0.69991000  0.22326000  0.00000000
H        H    0.30009000  0.49397000  0.22326000  0.00000000
H        H    0.50603000  0.80612000  0.22326000  0.00000000
H        H    0.89736000  0.70061000  0.91824000  0.00000000
H        H    0.29939000  0.19675000  0.91824000  0.00000000
H        H    0.80325000  0.10264000  0.91824000  0.00000000
H        H    0.71634000  0.55112000  0.46570000  0.00000000
H        H    0.44888000  0.16522000  0.46570000  0.00000000
H        H    0.83478000  0.28366000  0.46570000  0.00000000
H        H    0.67784000  0.58599000  0.34407000  0.00000000
H        H    0.41401000  0.09185000  0.34407000  0.00000000
H        H    0.90815000  0.32216000  0.34407000  0.00000000
H        H    0.72245000  0.67099000  0.45534000  0.00000000
H        H    0.32901000  0.05146000  0.45534000  0.00000000
H        H    0.94854000  0.27755000  0.45534000  0.00000000
H        H    0.73706000  0.52192000  0.42045000  0.00000000
H        H    0.47808000  0.21514000  0.42045000  0.00000000
H        H    0.78486000  0.26294000  0.42045000  0.00000000
H        H    0.72090000  0.45471000  0.38362000  0.00000000
H        H    0.54529000  0.26619000  0.38362000  0.00000000
H        H    0.73381000  0.27910000  0.38362000  0.00000000
H        H    0.63206000  0.45795000  0.30366000  0.00000000
H        H    0.54205000  0.17411000  0.30366000  0.00000000
H        H    0.82589000  0.36794000  0.30366000  0.00000000
H        H    0.64459000  0.52167000  0.33910000  0.00000000
H        H    0.47833000  0.12292000  0.33910000  0.00000000
H        H    0.87708000  0.35541000  0.33910000  0.00000000
H        H    0.64420000  0.61897000  0.33136000  0.00000000
H        H    0.38103000  0.02523000  0.33136000  0.00000000
H        H    0.97477000  0.35580000  0.33136000  0.00000000
H        H    0.32895000  0.96369000  0.29183000  0.00000000
H        H    0.03631000  0.36526000  0.29183000  0.00000000
H        H    0.63474000  0.67105000  0.29183000  0.00000000
H        H    0.23756000  0.95545000  0.37533000  0.00000000
H        H    0.04455000  0.28211000  0.37533000  0.00000000
H        H    0.71789000  0.76244000  0.37533000  0.00000000
H        H    0.72974000  0.71284000  0.41612000  0.00000000
H        H    0.28716000  0.01690000  0.41612000  0.00000000
H        H    0.98310000  0.27026000  0.41612000  0.00000000
H        H    0.77761000  0.68520000  0.49920000  0.00000000
H        H    0.31480000  0.09241000  0.49920000  0.00000000
H        H    0.90759000  0.22239000  0.49920000  0.00000000
H        H    0.71993000  0.57711000  0.61592000  0.00000000
H        H    0.42289000  0.14282000  0.61592000  0.00000000
H        H    0.85718000  0.28007000  0.61592000  0.00000000
H        H    0.70430000  0.55790000  0.54029000  0.00000000
H        H    0.44210000  0.14640000  0.54029000  0.00000000
H        H    0.85360000  0.29570000  0.54029000  0.00000000
H        H    0.01951000  0.92434000  0.18520000  0.00000000
H        H    0.07566000  0.09517000  0.18520000  0.00000000
H        H    0.90483000  0.98049000  0.18520000  0.00000000
H        H    0.06017000  0.88522000  0.18502000  0.00000000
H        H    0.11478000  0.17495000  0.18502000  0.00000000
H        H    0.82505000  0.93983000  0.18502000  0.00000000
H        H    0.34024000  0.76870000  0.27671000  0.00000000
H        H    0.23130000  0.57154000  0.27671000  0.00000000
H        H    0.42846000  0.65976000  0.27671000  0.00000000
H        H    0.30009000  0.80612000  0.27674000  0.00000000
H        H    0.19388000  0.49397000  0.27674000  0.00000000
H        H    0.50603000  0.69991000  0.27674000  0.00000000
H        H    0.80325000  0.70061000  0.58176000  0.00000000
H        H    0.29939000  0.10264000  0.58176000  0.00000000
H        H    0.89736000  0.19675000  0.58176000  0.00000000
H        H    0.28366000  0.83478000  0.96570000  0.00000000
H        H    0.16522000  0.44888000  0.96570000  0.00000000
H        H    0.55112000  0.71634000  0.96570000  0.00000000
H        H    0.32216000  0.90815000  0.84407000  0.00000000
H        H    0.09185000  0.41401000  0.84407000  0.00000000
H        H    0.58599000  0.67784000  0.84407000  0.00000000
H        H    0.27755000  0.94854000  0.95534000  0.00000000
H        H    0.05146000  0.32901000  0.95534000  0.00000000
H        H    0.67099000  0.72245000  0.95534000  0.00000000
H        H    0.26294000  0.78486000  0.92045000  0.00000000
H        H    0.21514000  0.47808000  0.92045000  0.00000000
H        H    0.52192000  0.73706000  0.92045000  0.00000000
H        H    0.27910000  0.73381000  0.88362000  0.00000000
H        H    0.26619000  0.54529000  0.88362000  0.00000000
H        H    0.45471000  0.72090000  0.88362000  0.00000000
H        H    0.36794000  0.82589000  0.80366000  0.00000000
H        H    0.17411000  0.54205000  0.80366000  0.00000000
H        H    0.45795000  0.63206000  0.80366000  0.00000000
H        H    0.35541000  0.87708000  0.83910000  0.00000000
H        H    0.12292000  0.47833000  0.83910000  0.00000000
H        H    0.52167000  0.64459000  0.83910000  0.00000000
H        H    0.35580000  0.97477000  0.83136000  0.00000000
H        H    0.02523000  0.38103000  0.83136000  0.00000000
H        H    0.61897000  0.64420000  0.83136000  0.00000000
H        H    0.67105000  0.63474000  0.79183000  0.00000000
H        H    0.36526000  0.03631000  0.79183000  0.00000000
H        H    0.96369000  0.32895000  0.79183000  0.00000000
H        H    0.76244000  0.71789000  0.87533000  0.00000000
H        H    0.28211000  0.04455000  0.87533000  0.00000000
H        H    0.95545000  0.23756000  0.87533000  0.00000000
H        H    0.27026000  0.98310000  0.91612000  0.00000000
H        H    0.01690000  0.28716000  0.91612000  0.00000000
H        H    0.71284000  0.72974000  0.91612000  0.00000000
H        H    0.22239000  0.90759000  0.99920000  0.00000000
H        H    0.09241000  0.31480000  0.99920000  0.00000000
H        H    0.68520000  0.77761000  0.99920000  0.00000000
H        H    0.28007000  0.85718000  0.11592000  0.00000000
H        H    0.14282000  0.42289000  0.11592000  0.00000000
H        H    0.57711000  0.71993000  0.11592000  0.00000000
H        H    0.29570000  0.85360000  0.04029000  0.00000000
H        H    0.14640000  0.44210000  0.04029000  0.00000000
H        H    0.55790000  0.70430000  0.04029000  0.00000000
H        H    0.98049000  0.90483000  0.68520000  0.00000000
H        H    0.09517000  0.07566000  0.68520000  0.00000000
H        H    0.92434000  0.01951000  0.68520000  0.00000000
H        H    0.93983000  0.82505000  0.68502000  0.00000000
H        H    0.17495000  0.11478000  0.68502000  0.00000000
H        H    0.88522000  0.06017000  0.68502000  0.00000000
H        H    0.65976000  0.42846000  0.77671000  0.00000000
H        H    0.57154000  0.23130000  0.77671000  0.00000000
H        H    0.76870000  0.34024000  0.77671000  0.00000000
H        H    0.69991000  0.50603000  0.77674000  0.00000000
H        H    0.49397000  0.19388000  0.77674000  0.00000000
H        H    0.80612000  0.30009000  0.77674000  0.00000000
H        H    0.19675000  0.89736000  0.08176000  0.00000000
H        H    0.10264000  0.29939000  0.08176000  0.00000000
H        H    0.70061000  0.80325000  0.08176000  0.00000000
H        H    0.16522000  0.71634000  0.53430000  0.00000000
H        H    0.28366000  0.44888000  0.53430000  0.00000000
H        H    0.55112000  0.83478000  0.53430000  0.00000000
H        H    0.09185000  0.67784000  0.65593000  0.00000000
H        H    0.32216000  0.41401000  0.65593000  0.00000000
H        H    0.58599000  0.90815000  0.65593000  0.00000000
H        H    0.05146000  0.72245000  0.54466000  0.00000000
H        H    0.27755000  0.32901000  0.54466000  0.00000000
H        H    0.67099000  0.94854000  0.54466000  0.00000000
H        H    0.21514000  0.73706000  0.57955000  0.00000000
H        H    0.26294000  0.47808000  0.57955000  0.00000000
H        H    0.52192000  0.78486000  0.57955000  0.00000000
H        H    0.26619000  0.72090000  0.61638000  0.00000000
H        H    0.27910000  0.54529000  0.61638000  0.00000000
H        H    0.45471000  0.73381000  0.61638000  0.00000000
H        H    0.17411000  0.63206000  0.69634000  0.00000000
H        H    0.36794000  0.54205000  0.69634000  0.00000000
H        H    0.45795000  0.82589000  0.69634000  0.00000000
H        H    0.12292000  0.64459000  0.66090000  0.00000000
H        H    0.35541000  0.47833000  0.66090000  0.00000000
H        H    0.52167000  0.87708000  0.66090000  0.00000000
H        H    0.02523000  0.64420000  0.66864000  0.00000000
H        H    0.35580000  0.38103000  0.66864000  0.00000000
H        H    0.61897000  0.97477000  0.66864000  0.00000000
H        H    0.96369000  0.63474000  0.70817000  0.00000000
H        H    0.36526000  0.32895000  0.70817000  0.00000000
H        H    0.67105000  0.03631000  0.70817000  0.00000000
H        H    0.95545000  0.71789000  0.62467000  0.00000000
H        H    0.28211000  0.23756000  0.62467000  0.00000000
H        H    0.76244000  0.04455000  0.62467000  0.00000000
H        H    0.01690000  0.72974000  0.58388000  0.00000000
H        H    0.27026000  0.28716000  0.58388000  0.00000000
H        H    0.71284000  0.98310000  0.58388000  0.00000000
H        H    0.09241000  0.77761000  0.50080000  0.00000000
H        H    0.22239000  0.31480000  0.50080000  0.00000000
H        H    0.68520000  0.90759000  0.50080000  0.00000000
H        H    0.14282000  0.71993000  0.38408000  0.00000000
H        H    0.28007000  0.42289000  0.38408000  0.00000000
H        H    0.57711000  0.85718000  0.38408000  0.00000000
H        H    0.14640000  0.70430000  0.45971000  0.00000000
H        H    0.29570000  0.44210000  0.45971000  0.00000000
H        H    0.55790000  0.85360000  0.45971000  0.00000000
H        H    0.92434000  0.90483000  0.81480000  0.00000000
H        H    0.09517000  0.01951000  0.81480000  0.00000000
H        H    0.98049000  0.07566000  0.81480000  0.00000000
H        H    0.88522000  0.82505000  0.81498000  0.00000000
H        H    0.17495000  0.06017000  0.81498000  0.00000000
H        H    0.93983000  0.11478000  0.81498000  0.00000000
H        H    0.76870000  0.42846000  0.72329000  0.00000000
H        H    0.57154000  0.34024000  0.72329000  0.00000000
H        H    0.65976000  0.23130000  0.72329000  0.00000000
H        H    0.80612000  0.50603000  0.72326000  0.00000000
H        H    0.49397000  0.30009000  0.72326000  0.00000000
H        H    0.69991000  0.19388000  0.72326000  0.00000000
H        H    0.10264000  0.80325000  0.41824000  0.00000000
H        H    0.19675000  0.29939000  0.41824000  0.00000000
H        H    0.70061000  0.89736000  0.41824000  0.00000000
H        H    0.96053000  0.92169000  0.25000000  0.00000000
H        H    0.07831000  0.03884000  0.25000000  0.00000000
H        H    0.96116000  0.03947000  0.25000000  0.00000000
H        H    0.03884000  0.96053000  0.75000000  0.00000000
H        H    0.03947000  0.07831000  0.75000000  0.00000000
H        H    0.92169000  0.96116000  0.75000000  0.00000000
H        H    0.37235000  0.74590000  0.25000000  0.00000000
H        H    0.25410000  0.62645000  0.25000000  0.00000000
H        H    0.37355000  0.62765000  0.25000000  0.00000000
H        H    0.74590000  0.37355000  0.75000000  0.00000000
H        H    0.62645000  0.37235000  0.75000000  0.00000000
H        H    0.62765000  0.25410000  0.75000000  0.00000000
