data_MOF-200

_cell_length_a  52.02200000
_cell_length_b  52.02200000
_cell_length_c  42.31600000
_cell_angle_alpha  90.00000000
_cell_angle_beta  90.00000000
_cell_angle_gamma  120.00000000


_symmetry_space_group_name_Hall ' P 1'
_symmetry_space_group_name_H-M  'P 1'
_symmetry_Int_Tables_number     1

loop_
_atom_site_label
_atom_site_type_symbol
_atom_site_fract_x
_atom_site_fract_y
_atom_site_fract_z
_atom_site_charge
Zn       Zn   0.84038400  0.69296800  0.78705700  0.00000000
Zn       Zn   0.14741600  0.30703200  0.28705700  0.00000000
Zn       Zn   0.69296800  0.84038400  0.28705700  0.00000000
Zn       Zn   0.30703200  0.14741600  0.78705700  0.00000000
Zn       Zn   0.15961600  0.85258400  0.28705700  0.00000000
Zn       Zn   0.85258400  0.15961600  0.78705700  0.00000000
O        O    0.11605000  0.80162000  0.20000900  0.00000000
O        O    0.31443000  0.19838000  0.70000900  0.00000000
O        O    0.80162000  0.11605000  0.70000900  0.00000000
O        O    0.19838000  0.31443000  0.20000900  0.00000000
O        O    0.88395000  0.68557000  0.70000900  0.00000000
O        O    0.68557000  0.88395000  0.20000900  0.00000000
O        O    0.69809900  0.39280000  0.20460100  0.00000000
O        O    0.30529900  0.60720000  0.70460100  0.00000000
O        O    0.39280000  0.69809900  0.70460100  0.00000000
O        O    0.60720000  0.30529900  0.20460100  0.00000000
O        O    0.30190100  0.69470100  0.70460100  0.00000000
O        O    0.69470100  0.30190100  0.20460100  0.00000000
O        O    0.72813900  0.37524000  0.20980000  0.00000000
O        O    0.35289900  0.62476000  0.70980000  0.00000000
O        O    0.37524000  0.72813900  0.70980000  0.00000000
O        O    0.62476000  0.35289900  0.20980000  0.00000000
O        O    0.27186100  0.64710100  0.70980000  0.00000000
O        O    0.64710100  0.27186100  0.20980000  0.00000000
O        O    0.86239900  0.73412900  0.77560000  0.00000000
O        O    0.12827000  0.26587100  0.27560000  0.00000000
O        O    0.73412900  0.86239900  0.27560000  0.00000000
O        O    0.26587100  0.12827000  0.77560000  0.00000000
O        O    0.13760100  0.87173000  0.27560000  0.00000000
O        O    0.87173000  0.13760100  0.77560000  0.00000000
C        C    0.90163000  0.59732000  0.10919000  0.00000000
C        C    0.30431000  0.40268000  0.60919000  0.00000000
C        C    0.59732000  0.90163000  0.60919000  0.00000000
C        C    0.40268000  0.30431000  0.10919000  0.00000000
C        C    0.09837000  0.69569000  0.60919000  0.00000000
C        C    0.69569000  0.09837000  0.10919000  0.00000000
H        H    0.90440100  0.59340000  0.13000000  0.00000000
H        H    0.31100100  0.40660000  0.63000000  0.00000000
H        H    0.59340000  0.90440100  0.63000000  0.00000000
H        H    0.40660000  0.31100100  0.13000000  0.00000000
H        H    0.09559900  0.68899900  0.63000000  0.00000000
H        H    0.68899900  0.09559900  0.13000000  0.00000000
C        C    0.87618000  0.57735000  0.09290100  0.00000000
C        C    0.29883000  0.42265000  0.59290100  0.00000000
C        C    0.57735000  0.87618000  0.59290100  0.00000000
C        C    0.42265000  0.29883000  0.09290100  0.00000000
C        C    0.12382000  0.70117000  0.59290100  0.00000000
C        C    0.70117000  0.12382000  0.09290100  0.00000000
H        H    0.90039900  0.67130000  0.96730100  0.00000000
H        H    0.22909900  0.32870000  0.46730100  0.00000000
H        H    0.67130000  0.90039900  0.46730100  0.00000000
H        H    0.32870000  0.22909900  0.96730100  0.00000000
H        H    0.09960100  0.77090100  0.46730100  0.00000000
H        H    0.77090100  0.09960100  0.96730100  0.00000000
C        C    0.89824000  0.64561000  0.00419900  0.00000000
C        C    0.25263000  0.35439000  0.50419900  0.00000000
C        C    0.64561000  0.89824000  0.50419900  0.00000000
C        C    0.35439000  0.25263000  0.00419900  0.00000000
C        C    0.10176000  0.74737000  0.50419900  0.00000000
C        C    0.74737000  0.10176000  0.00419900  0.00000000
C        C    0.88785000  0.61642000  0.01350100  0.00000000
C        C    0.27143000  0.38358000  0.51350100  0.00000000
C        C    0.61642000  0.88785000  0.51350100  0.00000000
C        C    0.38358000  0.27143000  0.01350100  0.00000000
C        C    0.11215000  0.72857000  0.51350100  0.00000000
C        C    0.72857000  0.11215000  0.01350100  0.00000000
C        C    0.87271100  0.59342000  0.99209000  0.00000000
C        C    0.27929100  0.40658000  0.49209000  0.00000000
C        C    0.59342000  0.87271100  0.49209000  0.00000000
C        C    0.40658000  0.27929100  0.99209000  0.00000000
C        C    0.12728900  0.72070900  0.49209000  0.00000000
C        C    0.72070900  0.12728900  0.99209000  0.00000000
H        H    0.86579900  0.57390000  0.99830100  0.00000000
H        H    0.29189900  0.42610000  0.49830100  0.00000000
H        H    0.57390000  0.86579900  0.49830100  0.00000000
H        H    0.42610000  0.29189900  0.99830100  0.00000000
H        H    0.13420100  0.70810100  0.49830100  0.00000000
H        H    0.70810100  0.13420100  0.99830100  0.00000000
C        C    0.86796000  0.59959000  0.96138100  0.00000000
C        C    0.26837000  0.40041000  0.46138100  0.00000000
C        C    0.59959000  0.86796000  0.46138100  0.00000000
C        C    0.40041000  0.26837000  0.96138100  0.00000000
C        C    0.13204000  0.73163000  0.46138100  0.00000000
C        C    0.73163000  0.13204000  0.96138100  0.00000000
C        C    0.86383000  0.64902000  0.85695000  0.00000000
C        C    0.21481000  0.35098000  0.35695000  0.00000000
C        C    0.64902000  0.86383000  0.35695000  0.00000000
C        C    0.35098000  0.21481000  0.85695000  0.00000000
C        C    0.13617000  0.78519000  0.35695000  0.00000000
C        C    0.78519000  0.13617000  0.85695000  0.00000000
H        H    0.85750000  0.67960000  0.87960100  0.00000000
H        H    0.17790000  0.32040000  0.37960100  0.00000000
H        H    0.67960000  0.85750000  0.37960100  0.00000000
H        H    0.32040000  0.17790000  0.87960100  0.00000000
H        H    0.14250000  0.82210000  0.37960100  0.00000000
H        H    0.82210000  0.14250000  0.87960100  0.00000000
C        C    0.86746000  0.65812900  0.91300000  0.00000000
C        C    0.20933100  0.34187100  0.41300000  0.00000000
C        C    0.65812900  0.86746000  0.41300000  0.00000000
C        C    0.34187100  0.20933100  0.91300000  0.00000000
C        C    0.13254000  0.79066900  0.41300000  0.00000000
C        C    0.79066900  0.13254000  0.91300000  0.00000000
C        C    0.87438000  0.63581900  0.91756100  0.00000000
C        C    0.23856100  0.36418100  0.41756100  0.00000000
C        C    0.63581900  0.87438000  0.41756100  0.00000000
C        C    0.36418100  0.23856100  0.91756100  0.00000000
C        C    0.12562000  0.76143900  0.41756100  0.00000000
C        C    0.76143900  0.12562000  0.91756100  0.00000000
H        H    0.88069900  0.60519900  0.89490000  0.00000000
H        H    0.27550000  0.39480100  0.39490000  0.00000000
H        H    0.60519900  0.88069900  0.39490000  0.00000000
H        H    0.39480100  0.27550000  0.89490000  0.00000000
H        H    0.11930100  0.72450000  0.39490000  0.00000000
H        H    0.72450000  0.11930100  0.89490000  0.00000000
C        C    0.87076000  0.62671000  0.86151100  0.00000000
C        C    0.24405000  0.37329000  0.36151100  0.00000000
C        C    0.62671000  0.87076000  0.36151100  0.00000000
C        C    0.37329000  0.24405000  0.86151100  0.00000000
C        C    0.12924000  0.75595000  0.36151100  0.00000000
C        C    0.75595000  0.12924000  0.86151100  0.00000000
H        H    0.87190000  0.61620000  0.84430000  0.00000000
H        H    0.25570000  0.38380000  0.34430000  0.00000000
H        H    0.61620000  0.87190000  0.34430000  0.00000000
H        H    0.38380000  0.25570000  0.84430000  0.00000000
H        H    0.12810000  0.74430000  0.34430000  0.00000000
H        H    0.74430000  0.12810000  0.84430000  0.00000000
C        C    0.85401100  0.65381000  0.82479900  0.00000000
C        C    0.20020100  0.34619000  0.32479900  0.00000000
C        C    0.65381000  0.85401100  0.32479900  0.00000000
C        C    0.34619000  0.20020100  0.82479900  0.00000000
C        C    0.14598900  0.79979900  0.32479900  0.00000000
C        C    0.79979900  0.14598900  0.82479900  0.00000000
C        C    0.94960000  0.64355000  0.11265000  0.00000000
C        C    0.30605000  0.35645000  0.61265000  0.00000000
C        C    0.64355000  0.94960000  0.61265000  0.00000000
C        C    0.35645000  0.30605000  0.11265000  0.00000000
C        C    0.05040000  0.69395000  0.61265000  0.00000000
C        C    0.69395000  0.05040000  0.11265000  0.00000000
C        C    0.96566900  0.67217900  0.10060000  0.00000000
C        C    0.29349000  0.32782100  0.60060000  0.00000000
C        C    0.67217900  0.96566900  0.60060000  0.00000000
C        C    0.32782100  0.29349000  0.10060000  0.00000000
C        C    0.03433100  0.70651000  0.60060000  0.00000000
C        C    0.70651000  0.03433100  0.10060000  0.00000000
H        H    0.95970000  0.67700000  0.08190000  0.00000000
H        H    0.28270000  0.32300000  0.58190000  0.00000000
H        H    0.67700000  0.95970000  0.58190000  0.00000000
H        H    0.32300000  0.28270000  0.08190000  0.00000000
H        H    0.04030000  0.71730000  0.58190000  0.00000000
H        H    0.71730000  0.04030000  0.08190000  0.00000000
C        C    0.99063000  0.69353900  0.11652100  0.00000000
C        C    0.29709100  0.30646100  0.61652100  0.00000000
C        C    0.69353900  0.99063000  0.61652100  0.00000000
C        C    0.30646100  0.29709100  0.11652100  0.00000000
C        C    0.00937000  0.70290900  0.61652100  0.00000000
C        C    0.70290900  0.00937000  0.11652100  0.00000000
H        H    0.00140100  0.71270100  0.10850000  0.00000000
H        H    0.28870000  0.28729900  0.60850000  0.00000000
H        H    0.71270100  0.00140100  0.60850000  0.00000000
H        H    0.28729900  0.28870000  0.10850000  0.00000000
H        H    0.99859900  0.71130000  0.60850000  0.00000000
H        H    0.71130000  0.99859900  0.10850000  0.00000000
C        C    0.98345000  0.65765000  0.15653900  0.00000000
C        C    0.32580000  0.34235000  0.65653900  0.00000000
C        C    0.65765000  0.98345000  0.65653900  0.00000000
C        C    0.34235000  0.32580000  0.15653900  0.00000000
C        C    0.01655000  0.67420000  0.65653900  0.00000000
C        C    0.67420000  0.01655000  0.15653900  0.00000000
H        H    0.98940000  0.65280000  0.17530000  0.00000000
H        H    0.33660000  0.34720000  0.67530000  0.00000000
H        H    0.65280000  0.98940000  0.67530000  0.00000000
H        H    0.34720000  0.33660000  0.17530000  0.00000000
H        H    0.01060000  0.66340000  0.67530000  0.00000000
H        H    0.66340000  0.01060000  0.17530000  0.00000000
C        C    0.04569900  0.74135000  0.15026900  0.00000000
C        C    0.30434900  0.25865000  0.65026900  0.00000000
C        C    0.74135000  0.04569900  0.65026900  0.00000000
C        C    0.25865000  0.30434900  0.15026900  0.00000000
C        C    0.95430100  0.69565100  0.65026900  0.00000000
C        C    0.69565100  0.95430100  0.15026900  0.00000000
C        C    0.07022000  0.76035000  0.16839000  0.00000000
C        C    0.30987000  0.23965000  0.66839000  0.00000000
C        C    0.76035000  0.07022000  0.66839000  0.00000000
C        C    0.23965000  0.30987000  0.16839000  0.00000000
C        C    0.92978000  0.69013000  0.66839000  0.00000000
C        C    0.69013000  0.92978000  0.16839000  0.00000000
H        H    0.08160000  0.78030000  0.16290100  0.00000000
H        H    0.30130000  0.21970000  0.66290100  0.00000000
H        H    0.78030000  0.08160000  0.66290100  0.00000000
H        H    0.21970000  0.30130000  0.16290100  0.00000000
H        H    0.91840000  0.69870000  0.66290100  0.00000000
H        H    0.69870000  0.91840000  0.16290100  0.00000000
C        C    0.07776000  0.74960000  0.19477000  0.00000000
C        C    0.32816000  0.25040000  0.69477000  0.00000000
C        C    0.74960000  0.07776000  0.69477000  0.00000000
C        C    0.25040000  0.32816000  0.19477000  0.00000000
C        C    0.92224000  0.67184000  0.69477000  0.00000000
C        C    0.67184000  0.92224000  0.19477000  0.00000000
C        C    0.03624000  0.70083000  0.18489900  0.00000000
C        C    0.33541000  0.29917000  0.68489900  0.00000000
C        C    0.70083000  0.03624000  0.68489900  0.00000000
C        C    0.29917000  0.33541000  0.18489900  0.00000000
C        C    0.96376000  0.66459000  0.68489900  0.00000000
C        C    0.66459000  0.96376000  0.18489900  0.00000000
H        H    0.02490100  0.68090000  0.19040100  0.00000000
H        H    0.34400100  0.31910000  0.69040100  0.00000000
H        H    0.68090000  0.02490100  0.69040100  0.00000000
H        H    0.31910000  0.34400100  0.19040100  0.00000000
H        H    0.97509900  0.65599900  0.69040100  0.00000000
H        H    0.65599900  0.97509900  0.19040100  0.00000000
C        C    0.10491000  0.77500000  0.21005100  0.00000000
C        C    0.32991000  0.22500000  0.71005100  0.00000000
C        C    0.77500000  0.10491000  0.71005100  0.00000000
C        C    0.22500000  0.32991000  0.21005100  0.00000000
C        C    0.89509000  0.67009000  0.71005100  0.00000000
C        C    0.67009000  0.89509000  0.21005100  0.00000000
C        C    0.86179900  0.53289900  0.12940000  0.00000000
C        C    0.32890000  0.46710100  0.62940000  0.00000000
C        C    0.53289900  0.86179900  0.62940000  0.00000000
C        C    0.46710100  0.32890000  0.12940000  0.00000000
C        C    0.13820100  0.67110000  0.62940000  0.00000000
C        C    0.67110000  0.13820100  0.12940000  0.00000000
H        H    0.88190000  0.54029900  0.13340100  0.00000000
H        H    0.34160100  0.45970100  0.63340100  0.00000000
H        H    0.54029900  0.88190000  0.63340100  0.00000000
H        H    0.45970100  0.34160100  0.13340100  0.00000000
H        H    0.11810000  0.65839900  0.63340100  0.00000000
H        H    0.65839900  0.11810000  0.13340100  0.00000000
C        C    0.84070000  0.50710000  0.14430000  0.00000000
C        C    0.33360000  0.49290000  0.64430000  0.00000000
C        C    0.50710000  0.84070000  0.64430000  0.00000000
C        C    0.49290000  0.33360000  0.14430000  0.00000000
C        C    0.15930000  0.66640000  0.64430000  0.00000000
C        C    0.66640000  0.15930000  0.14430000  0.00000000
C        C    0.81070100  0.49610000  0.13839900  0.00000000
C        C    0.31460100  0.50390000  0.63839900  0.00000000
C        C    0.49610000  0.81070100  0.63839900  0.00000000
C        C    0.50390000  0.31460100  0.13839900  0.00000000
C        C    0.18929900  0.68539900  0.63839900  0.00000000
C        C    0.68539900  0.18929900  0.13839900  0.00000000
C        C    0.80189900  0.51090000  0.11749900  0.00000000
C        C    0.29099900  0.48910000  0.61749900  0.00000000
C        C    0.51090000  0.80189900  0.61749900  0.00000000
C        C    0.48910000  0.29099900  0.11749900  0.00000000
C        C    0.19810100  0.70900100  0.61749900  0.00000000
C        C    0.70900100  0.19810100  0.11749900  0.00000000
H        H    0.81710000  0.54649900  0.08869900  0.00000000
H        H    0.27060100  0.45350100  0.58869900  0.00000000
H        H    0.54649900  0.81710000  0.58869900  0.00000000
H        H    0.45350100  0.27060100  0.08869900  0.00000000
H        H    0.18290000  0.72939900  0.58869900  0.00000000
H        H    0.72939900  0.18290000  0.08869900  0.00000000
C        C    0.78818000  0.47142000  0.15497000  0.00000000
C        C    0.31676000  0.52858000  0.65497000  0.00000000
C        C    0.47142000  0.78818000  0.65497000  0.00000000
C        C    0.52858000  0.31676000  0.15497000  0.00000000
C        C    0.21182000  0.68324000  0.65497000  0.00000000
C        C    0.68324000  0.21182000  0.15497000  0.00000000
C        C    0.79687000  0.45572900  0.17465000  0.00000000
C        C    0.34114100  0.54427100  0.67465000  0.00000000
C        C    0.45572900  0.79687000  0.67465000  0.00000000
C        C    0.54427100  0.34114100  0.17465000  0.00000000
C        C    0.20313000  0.65885900  0.67465000  0.00000000
C        C    0.65885900  0.20313000  0.17465000  0.00000000
C        C    0.77556900  0.42975900  0.18913900  0.00000000
C        C    0.34581000  0.57024100  0.68913900  0.00000000
C        C    0.42975900  0.77556900  0.68913900  0.00000000
C        C    0.57024100  0.34581000  0.18913900  0.00000000
C        C    0.22443100  0.65419000  0.68913900  0.00000000
C        C    0.65419000  0.22443100  0.18913900  0.00000000
H        H    0.78140000  0.41930000  0.20229900  0.00000000
H        H    0.36210000  0.58070000  0.70229900  0.00000000
H        H    0.41930000  0.78140000  0.70229900  0.00000000
H        H    0.58070000  0.36210000  0.20229900  0.00000000
H        H    0.21860000  0.63790000  0.70229900  0.00000000
H        H    0.63790000  0.21860000  0.20229900  0.00000000
C        C    0.74558900  0.41946900  0.18394900  0.00000000
C        C    0.32612000  0.58053100  0.68394900  0.00000000
C        C    0.41946900  0.74558900  0.68394900  0.00000000
C        C    0.58053100  0.32612000  0.18394900  0.00000000
C        C    0.25441100  0.67388000  0.68394900  0.00000000
C        C    0.67388000  0.25441100  0.18394900  0.00000000
C        C    0.73691000  0.43516000  0.16426900  0.00000000
C        C    0.30175000  0.56484000  0.66426900  0.00000000
C        C    0.43516000  0.73691000  0.66426900  0.00000000
C        C    0.56484000  0.30175000  0.16426900  0.00000000
C        C    0.26309000  0.69825000  0.66426900  0.00000000
C        C    0.69825000  0.26309000  0.16426900  0.00000000
C        C    0.75821000  0.46114000  0.14979000  0.00000000
C        C    0.29707000  0.53886000  0.64979000  0.00000000
C        C    0.46114000  0.75821000  0.64979000  0.00000000
C        C    0.53886000  0.29707000  0.14979000  0.00000000
C        C    0.24179000  0.70293000  0.64979000  0.00000000
C        C    0.70293000  0.24179000  0.14979000  0.00000000
H        H    0.81289900  0.55100000  0.74560000  0.00000000
H        H    0.26189900  0.44900000  0.24560000  0.00000000
H        H    0.55100000  0.81289900  0.24560000  0.00000000
H        H    0.44900000  0.26189900  0.74560000  0.00000000
H        H    0.18710100  0.73810100  0.24560000  0.00000000
H        H    0.73810100  0.18710100  0.74560000  0.00000000
C        C    0.77744000  0.51011000  0.74739100  0.00000000
C        C    0.26733000  0.48989000  0.24739100  0.00000000
C        C    0.51011000  0.77744000  0.24739100  0.00000000
C        C    0.48989000  0.26733000  0.74739100  0.00000000
C        C    0.22256000  0.73267000  0.24739100  0.00000000
C        C    0.73267000  0.22256000  0.74739100  0.00000000
H        H    0.78829900  0.50039900  0.74560000  0.00000000
H        H    0.28790000  0.49960100  0.24560000  0.00000000
H        H    0.50039900  0.78829900  0.24560000  0.00000000
H        H    0.49960100  0.28790000  0.74560000  0.00000000
H        H    0.21170100  0.71210000  0.24560000  0.00000000
H        H    0.71210000  0.21170100  0.74560000  0.00000000
C        C    0.74299100  0.44250000  0.74500000  0.00000000
C        C    0.30049100  0.55750000  0.24500000  0.00000000
C        C    0.44250000  0.74299100  0.24500000  0.00000000
C        C    0.55750000  0.30049100  0.74500000  0.00000000
C        C    0.25700900  0.69950900  0.24500000  0.00000000
C        C    0.69950900  0.25700900  0.74500000  0.00000000
H        H    0.76300000  0.45240000  0.73990000  0.00000000
H        H    0.31060000  0.54760000  0.23990000  0.00000000
H        H    0.45240000  0.76300000  0.23990000  0.00000000
H        H    0.54760000  0.31060000  0.73990000  0.00000000
H        H    0.23700000  0.68940000  0.23990000  0.00000000
H        H    0.68940000  0.23700000  0.73990000  0.00000000
H        H    0.73849900  0.40200000  0.74690000  0.00000000
H        H    0.33649900  0.59800000  0.24690000  0.00000000
H        H    0.40200000  0.73849900  0.24690000  0.00000000
H        H    0.59800000  0.33649900  0.74690000  0.00000000
H        H    0.26150100  0.66350100  0.24690000  0.00000000
H        H    0.66350100  0.26150100  0.74690000  0.00000000
C        C    0.90070000  0.79370000  0.72280900  0.00000000
C        C    0.10700000  0.20630000  0.22280900  0.00000000
C        C    0.79370000  0.90070000  0.22280900  0.00000000
C        C    0.20630000  0.10700000  0.72280900  0.00000000
C        C    0.09930000  0.89300000  0.22280900  0.00000000
C        C    0.89300000  0.09930000  0.72280900  0.00000000
C        C    0.91569980  0.82479900  0.72279000  0.00000000
C        C    0.09090080  0.17520100  0.22279000  0.00000000
C        C    0.82479900  0.91569980  0.22279000  0.00000000
C        C    0.17520100  0.09090080  0.72279000  0.00000000
C        C    0.08430020  0.90909920  0.22279000  0.00000000
C        C    0.90909920  0.08430020  0.72279000  0.00000000
H        H    0.90369950  0.88049900  0.76200000  0.00000000
H        H    0.02320050  0.11950100  0.26200000  0.00000000
H        H    0.88049900  0.90369950  0.26200000  0.00000000
H        H    0.11950100  0.02320050  0.76200000  0.00000000
H        H    0.09630050  0.97679950  0.26200000  0.00000000
H        H    0.97679950  0.09630050  0.76200000  0.00000000
C        C    0.93959870  0.92059910  0.75980000  0.00000000
C        C    0.01899960  0.07940090  0.25980000  0.00000000
C        C    0.92059910  0.93959870  0.25980000  0.00000000
C        C    0.07940090  0.01899960  0.75980000  0.00000000
C        C    0.06040130  0.98100040  0.25980000  0.00000000
C        C    0.98100040  0.06040130  0.75980000  0.00000000
C        C    0.71569100  0.10671100  0.04707900  0.00000000
C        C    0.60898000  0.89328900  0.54707900  0.00000000
C        C    0.10671100  0.71569100  0.54707900  0.00000000
C        C    0.89328900  0.60898000  0.04707900  0.00000000
C        C    0.28430900  0.39102000  0.54707900  0.00000000
C        C    0.39102000  0.28430900  0.04707900  0.00000000
C        C    0.70020900  0.07709000  0.09442100  0.00000000
C        C    0.62311900  0.92291000  0.59442100  0.00000000
C        C    0.07709000  0.70020900  0.59442100  0.00000000
C        C    0.92291000  0.62311900  0.09442100  0.00000000
C        C    0.29979100  0.37688100  0.59442100  0.00000000
C        C    0.37688100  0.29979100  0.09442100  0.00000000
C        C    0.71116900  0.12799000  0.06184900  0.00000000
C        C    0.58317900  0.87201000  0.56184900  0.00000000
C        C    0.12799000  0.71116900  0.56184900  0.00000000
C        C    0.87201000  0.58317900  0.06184900  0.00000000
C        C    0.28883100  0.41682100  0.56184900  0.00000000
C        C    0.41682100  0.28883100  0.06184900  0.00000000
C        C    0.75042900  0.12164900  0.95208900  0.00000000
C        C    0.62878000  0.87835100  0.45208900  0.00000000
C        C    0.12164900  0.75042900  0.45208900  0.00000000
C        C    0.87835100  0.62878000  0.95208900  0.00000000
C        C    0.24957100  0.37122000  0.45208900  0.00000000
C        C    0.37122000  0.24957100  0.95208900  0.00000000
H        H    0.75260000  0.09159900  0.01849900  0.00000000
H        H    0.66100100  0.90840100  0.51849900  0.00000000
H        H    0.09159900  0.75260000  0.51849900  0.00000000
H        H    0.90840100  0.66100100  0.01849900  0.00000000
H        H    0.24740000  0.33899900  0.51849900  0.00000000
H        H    0.33899900  0.24740000  0.01849900  0.00000000
C        C    0.80254900  0.13781900  0.88269000  0.00000000
C        C    0.66473000  0.86218100  0.38269000  0.00000000
C        C    0.13781900  0.80254900  0.38269000  0.00000000
C        C    0.86218100  0.66473000  0.88269000  0.00000000
C        C    0.19745100  0.33527000  0.38269000  0.00000000
C        C    0.33527000  0.19745100  0.88269000  0.00000000
H        H    0.80230000  0.13369900  0.93019900  0.00000000
H        H    0.66860100  0.86630100  0.43019900  0.00000000
H        H    0.13369900  0.80230000  0.43019900  0.00000000
H        H    0.86630100  0.66860100  0.93019900  0.00000000
H        H    0.19770000  0.33139900  0.43019900  0.00000000
H        H    0.33139900  0.19770000  0.93019900  0.00000000
C        C    0.68676000  0.00048100  0.14448900  0.00000000
C        C    0.68627900  0.99951900  0.64448900  0.00000000
C        C    0.00048100  0.68676000  0.64448900  0.00000000
C        C    0.99951900  0.68627900  0.14448900  0.00000000
C        C    0.31324000  0.31372100  0.64448900  0.00000000
C        C    0.31372100  0.31324000  0.14448900  0.00000000
C        C    0.67779900  0.04152000  0.14062100  0.00000000
C        C    0.63627900  0.95848000  0.64062100  0.00000000
C        C    0.04152000  0.67779900  0.64062100  0.00000000
C        C    0.95848000  0.63627900  0.14062100  0.00000000
C        C    0.32220100  0.36372100  0.64062100  0.00000000
C        C    0.36372100  0.32220100  0.14062100  0.00000000
H        H    0.66940200  0.05230100  0.14870000  0.00000000
H        H    0.61710100  0.94769900  0.64870000  0.00000000
H        H    0.05230100  0.66940200  0.64870000  0.00000000
H        H    0.94769900  0.61710100  0.14870000  0.00000000
H        H    0.33059800  0.38289900  0.64870000  0.00000000
H        H    0.38289900  0.33059800  0.14870000  0.00000000
H        H    0.65060000  0.15340100  0.15820000  0.00000000
H        H    0.49719900  0.84659900  0.65820000  0.00000000
H        H    0.15340100  0.65060000  0.65820000  0.00000000
H        H    0.84659900  0.49719900  0.15820000  0.00000000
H        H    0.34940000  0.50280100  0.65820000  0.00000000
H        H    0.50280100  0.34940000  0.15820000  0.00000000
H        H    0.72170100  0.21820100  0.11350100  0.00000000
H        H    0.50350000  0.78179900  0.61350100  0.00000000
H        H    0.21820100  0.72170100  0.61350100  0.00000000
H        H    0.78179900  0.50350000  0.11350100  0.00000000
H        H    0.27829900  0.49650000  0.61350100  0.00000000
H        H    0.49650000  0.27829900  0.11350100  0.00000000
H        H    0.71140000  0.28310100  0.16080000  0.00000000
H        H    0.42829900  0.71689900  0.66080000  0.00000000
H        H    0.28310100  0.71140000  0.66080000  0.00000000
H        H    0.71689900  0.42829900  0.16080000  0.00000000
H        H    0.28860000  0.57170100  0.66080000  0.00000000
H        H    0.57170100  0.28860000  0.16080000  0.00000000
H        H    0.88459800  0.10129900  0.70430100  0.00000000
H        H    0.78329900  0.89870100  0.20430100  0.00000000
H        H    0.10129900  0.88459800  0.20430100  0.00000000
H        H    0.89870100  0.78329900  0.70430100  0.00000000
H        H    0.11540200  0.21670100  0.20430100  0.00000000
H        H    0.21670100  0.11540200  0.70430100  0.00000000
H        H    0.91239900  0.07750000  0.70380000  0.00000000
H        H    0.83489900  0.92250000  0.20380000  0.00000000
H        H    0.07750000  0.91239900  0.20380000  0.00000000
H        H    0.92250000  0.83489900  0.70380000  0.00000000
H        H    0.08760100  0.16510100  0.20380000  0.00000000
H        H    0.16510100  0.08760100  0.70380000  0.00000000
O        O    0.23388100  0.34757000  0.23178900  0.00000000
O        O    0.88631100  0.65243000  0.73178900  0.00000000
O        O    0.34757000  0.23388100  0.73178900  0.00000000
O        O    0.65243000  0.88631100  0.23178900  0.00000000
O        O    0.76611900  0.11368900  0.73178900  0.00000000
O        O    0.11368900  0.76611900  0.23178900  0.00000000
O        O    0.39861900  0.22039000  0.74841000  0.00000000
O        O    0.17822900  0.77961000  0.24841000  0.00000000
O        O    0.22039000  0.39861900  0.24841000  0.00000000
O        O    0.77961000  0.17822900  0.74841000  0.00000000
O        O    0.60138100  0.82177100  0.24841000  0.00000000
O        O    0.82177100  0.60138100  0.74841000  0.00000000
H        H    0.25139900  0.29209900  0.13260000  0.00000000
H        H    0.95930000  0.70790100  0.63260000  0.00000000
H        H    0.29209900  0.25139900  0.63260000  0.00000000
H        H    0.70790100  0.95930000  0.13260000  0.00000000
H        H    0.74860100  0.04070000  0.63260000  0.00000000
H        H    0.04070000  0.74860100  0.13260000  0.00000000
C        C    0.46329800  0.28639900  0.10259900  0.00000000
C        C    0.17689900  0.71360100  0.60259900  0.00000000
C        C    0.28639900  0.46329800  0.60259900  0.00000000
C        C    0.71360100  0.17689900  0.10259900  0.00000000
C        C    0.53670200  0.82310100  0.60259900  0.00000000
C        C    0.82310100  0.53670200  0.10259900  0.00000000
H        H    0.52839900  0.28079900  0.13660100  0.00000000
H        H    0.24760000  0.71920100  0.63660100  0.00000000
H        H    0.28079900  0.52839900  0.63660100  0.00000000
H        H    0.71920100  0.24760000  0.13660100  0.00000000
H        H    0.47160100  0.75240000  0.63660100  0.00000000
H        H    0.75240000  0.47160100  0.13660100  0.00000000
O        O    0.11604900  0.31442900  0.29999100  0.00000000
O        O    0.80162000  0.68557100  0.79999100  0.00000000
O        O    0.31442900  0.11604900  0.79999100  0.00000000
O        O    0.68557100  0.80162000  0.29999100  0.00000000
O        O    0.88395100  0.19838000  0.79999100  0.00000000
O        O    0.19838000  0.88395100  0.29999100  0.00000000
O        O    0.70247000  0.33101000  0.30907900  0.00000000
O        O    0.37146000  0.66899000  0.80907900  0.00000000
O        O    0.33101000  0.70247000  0.80907900  0.00000000
O        O    0.66899000  0.37146000  0.30907900  0.00000000
O        O    0.29753000  0.62854000  0.80907900  0.00000000
O        O    0.62854000  0.29753000  0.30907900  0.00000000
O        O    0.72755000  0.33910000  0.26654900  0.00000000
O        O    0.38845000  0.66090000  0.76654900  0.00000000
O        O    0.33910000  0.72755000  0.76654900  0.00000000
O        O    0.66090000  0.38845000  0.26654900  0.00000000
O        O    0.27245000  0.61155000  0.76654900  0.00000000
O        O    0.61155000  0.27245000  0.26654900  0.00000000
O        O    0.86239900  0.12827000  0.72440000  0.00000000
O        O    0.73412900  0.87173000  0.22440000  0.00000000
O        O    0.12827000  0.86239900  0.22440000  0.00000000
O        O    0.87173000  0.73412900  0.72440000  0.00000000
O        O    0.13760100  0.26587100  0.22440000  0.00000000
O        O    0.26587100  0.13760100  0.72440000  0.00000000
H        H    0.93300000  0.28679900  0.44650000  0.00000000
H        H    0.64620100  0.71320100  0.94650000  0.00000000
H        H    0.28679900  0.93300000  0.94650000  0.00000000
H        H    0.71320100  0.64620100  0.44650000  0.00000000
H        H    0.06700000  0.35379900  0.94650000  0.00000000
H        H    0.35379900  0.06700000  0.44650000  0.00000000
C        C    0.92291000  0.29979000  0.40557900  0.00000000
C        C    0.62312000  0.70021000  0.90557900  0.00000000
C        C    0.29979000  0.92291000  0.90557900  0.00000000
C        C    0.70021000  0.62312000  0.40557900  0.00000000
C        C    0.07709000  0.37688000  0.90557900  0.00000000
C        C    0.37688000  0.07709000  0.40557900  0.00000000
C        C    0.90163000  0.30431000  0.39081000  0.00000000
C        C    0.59732000  0.69569000  0.89081000  0.00000000
C        C    0.30431000  0.90163000  0.89081000  0.00000000
C        C    0.69569000  0.59732000  0.39081000  0.00000000
C        C    0.09837000  0.40268000  0.89081000  0.00000000
C        C    0.40268000  0.09837000  0.39081000  0.00000000
H        H    0.90440100  0.31100000  0.37000000  0.00000000
H        H    0.59340100  0.68900000  0.87000000  0.00000000
H        H    0.31100000  0.90440100  0.87000000  0.00000000
H        H    0.68900000  0.59340100  0.37000000  0.00000000
H        H    0.09559900  0.40659900  0.87000000  0.00000000
H        H    0.40659900  0.09559900  0.37000000  0.00000000
C        C    0.87618000  0.29882900  0.40709900  0.00000000
C        C    0.57735100  0.70117100  0.90709900  0.00000000
C        C    0.29882900  0.87618000  0.90709900  0.00000000
C        C    0.70117100  0.57735100  0.40709900  0.00000000
C        C    0.12382000  0.42264900  0.90709900  0.00000000
C        C    0.42264900  0.12382000  0.40709900  0.00000000
C        C    0.87200900  0.28883000  0.43815100  0.00000000
C        C    0.58317900  0.71117000  0.93815100  0.00000000
C        C    0.28883000  0.87200900  0.93815100  0.00000000
C        C    0.71117000  0.58317900  0.43815100  0.00000000
C        C    0.12799100  0.41682100  0.93815100  0.00000000
C        C    0.41682100  0.12799100  0.43815100  0.00000000
C        C    0.87835000  0.24956900  0.54791100  0.00000000
C        C    0.62878100  0.75043100  0.04791100  0.00000000
C        C    0.24956900  0.87835000  0.04791100  0.00000000
C        C    0.75043100  0.62878100  0.54791100  0.00000000
C        C    0.12165000  0.37121900  0.04791100  0.00000000
C        C    0.37121900  0.12165000  0.54791100  0.00000000
C        C    0.89350000  0.24170000  0.52649120  0.00000000
C        C    0.65180000  0.75830000  0.02649120  0.00000000
C        C    0.24170000  0.89350000  0.02649120  0.00000000
C        C    0.75830000  0.65180000  0.52649120  0.00000000
C        C    0.10650000  0.34820000  0.02649120  0.00000000
C        C    0.34820000  0.10650000  0.52649120  0.00000000
H        H    0.90039900  0.22909900  0.53269920  0.00000000
H        H    0.67130000  0.77090100  0.03269920  0.00000000
H        H    0.22909900  0.90039900  0.03269920  0.00000000
H        H    0.77090100  0.67130000  0.53269920  0.00000000
H        H    0.09960100  0.32870000  0.03269920  0.00000000
H        H    0.32870000  0.09960100  0.53269920  0.00000000
C        C    0.89824000  0.25263000  0.49580100  0.00000000
C        C    0.64561000  0.74737000  0.99580100  0.00000000
C        C    0.25263000  0.89824000  0.99580100  0.00000000
C        C    0.74737000  0.64561000  0.49580100  0.00000000
C        C    0.10176000  0.35439000  0.99580100  0.00000000
C        C    0.35439000  0.10176000  0.49580100  0.00000000
H        H    0.90840100  0.24740000  0.48150100  0.00000000
H        H    0.66100100  0.75260000  0.98150100  0.00000000
H        H    0.24740000  0.90840100  0.98150100  0.00000000
H        H    0.75260000  0.66100100  0.48150100  0.00000000
H        H    0.09159900  0.33899900  0.98150100  0.00000000
H        H    0.33899900  0.09159900  0.48150100  0.00000000
C        C    0.87271000  0.27929000  0.50790954  0.00000000
C        C    0.59342000  0.72071000  0.00790954  0.00000000
C        C    0.27929000  0.87271000  0.00790954  0.00000000
C        C    0.72071000  0.59342000  0.50790954  0.00000000
C        C    0.12729000  0.40658000  0.00790954  0.00000000
C        C    0.40658000  0.12729000  0.50790954  0.00000000
H        H    0.86579900  0.29190000  0.50169912  0.00000000
H        H    0.57389900  0.70810000  0.00169912  0.00000000
H        H    0.29190000  0.86579900  0.00169912  0.00000000
H        H    0.70810000  0.57389900  0.50169912  0.00000000
H        H    0.13420100  0.42610100  0.00169912  0.00000000
H        H    0.42610100  0.13420100  0.50169912  0.00000000
C        C    0.86382900  0.21480900  0.64305000  0.00000000
C        C    0.64902000  0.78519100  0.14305000  0.00000000
C        C    0.21480900  0.86382900  0.14305000  0.00000000
C        C    0.78519100  0.64902000  0.64305000  0.00000000
C        C    0.13617100  0.35098000  0.14305000  0.00000000
C        C    0.35098000  0.13617100  0.64305000  0.00000000
C        C    0.86218100  0.19745000  0.61731000  0.00000000
C        C    0.66473100  0.80255000  0.11731000  0.00000000
C        C    0.19745000  0.86218100  0.11731000  0.00000000
C        C    0.80255000  0.66473100  0.61731000  0.00000000
C        C    0.13781900  0.33526900  0.11731000  0.00000000
C        C    0.33526900  0.13781900  0.61731000  0.00000000
H        H    0.85749900  0.17789900  0.62039900  0.00000000
H        H    0.67960000  0.82210100  0.12039900  0.00000000
H        H    0.17789900  0.85749900  0.12039900  0.00000000
H        H    0.82210100  0.67960000  0.62039900  0.00000000
H        H    0.14250100  0.32040000  0.12039900  0.00000000
H        H    0.32040000  0.14250100  0.62039900  0.00000000
H        H    0.86630000  0.19770000  0.56980100  0.00000000
H        H    0.66860000  0.80230000  0.06980100  0.00000000
H        H    0.19770000  0.86630000  0.06980100  0.00000000
H        H    0.80230000  0.66860000  0.56980100  0.00000000
H        H    0.13370000  0.33140000  0.06980100  0.00000000
H        H    0.33140000  0.13370000  0.56980100  0.00000000
C        C    0.87438000  0.23856000  0.58243930  0.00000000
C        C    0.63582000  0.76144000  0.08243930  0.00000000
C        C    0.23856000  0.87438000  0.08243930  0.00000000
C        C    0.76144000  0.63582000  0.58243930  0.00000000
C        C    0.12562000  0.36418000  0.08243930  0.00000000
C        C    0.36418000  0.12562000  0.58243930  0.00000000
H        H    0.87190100  0.25570000  0.65570000  0.00000000
H        H    0.61620100  0.74430000  0.15570000  0.00000000
H        H    0.25570000  0.87190100  0.15570000  0.00000000
H        H    0.74430000  0.61620100  0.65570000  0.00000000
H        H    0.12809900  0.38379900  0.15570000  0.00000000
H        H    0.38379900  0.12809900  0.65570000  0.00000000
C        C    0.85401000  0.20020000  0.67520100  0.00000000
C        C    0.65381000  0.79980000  0.17520100  0.00000000
C        C    0.20020000  0.85401000  0.17520100  0.00000000
C        C    0.79980000  0.65381000  0.67520100  0.00000000
C        C    0.14599000  0.34619000  0.17520100  0.00000000
C        C    0.34619000  0.14599000  0.67520100  0.00000000
C        C    0.94960000  0.30605000  0.38735000  0.00000000
C        C    0.64355000  0.69395000  0.88735000  0.00000000
C        C    0.30605000  0.94960000  0.88735000  0.00000000
C        C    0.69395000  0.64355000  0.38735000  0.00000000
C        C    0.05040000  0.35645000  0.88735000  0.00000000
C        C    0.35645000  0.05040000  0.38735000  0.00000000
C        C    0.99062900  0.29708900  0.38347900  0.00000000
C        C    0.69354000  0.70291100  0.88347900  0.00000000
C        C    0.29708900  0.99062900  0.88347900  0.00000000
C        C    0.70291100  0.69354000  0.38347900  0.00000000
C        C    0.00937100  0.30646000  0.88347900  0.00000000
C        C    0.30646000  0.00937100  0.38347900  0.00000000
H        H    0.00140000  0.28869900  0.39150000  0.00000000
H        H    0.71270100  0.71130100  0.89150000  0.00000000
H        H    0.28869900  0.00140000  0.89150000  0.00000000
H        H    0.71130100  0.71270100  0.39150000  0.00000000
H        H    0.99860000  0.28729900  0.89150000  0.00000000
H        H    0.28729900  0.99860000  0.39150000  0.00000000
C        C    0.98345100  0.32580000  0.34346100  0.00000000
C        C    0.65765100  0.67420000  0.84346100  0.00000000
C        C    0.32580000  0.98345100  0.84346100  0.00000000
C        C    0.67420000  0.65765100  0.34346100  0.00000000
C        C    0.01654900  0.34234900  0.84346100  0.00000000
C        C    0.34234900  0.01654900  0.34346100  0.00000000
C        C    0.95848000  0.32220000  0.35937900  0.00000000
C        C    0.63628000  0.67780000  0.85937900  0.00000000
C        C    0.32220000  0.95848000  0.85937900  0.00000000
C        C    0.67780000  0.63628000  0.35937900  0.00000000
C        C    0.04152000  0.36372000  0.85937900  0.00000000
C        C    0.36372000  0.04152000  0.35937900  0.00000000
C        C    0.04570100  0.30435000  0.34973100  0.00000000
C        C    0.74135100  0.69565000  0.84973100  0.00000000
C        C    0.30435000  0.04570100  0.84973100  0.00000000
C        C    0.69565000  0.74135100  0.34973100  0.00000000
C        C    0.95429900  0.25864900  0.84973100  0.00000000
C        C    0.25864900  0.95429900  0.34973100  0.00000000
C        C    0.07022100  0.30987000  0.33161000  0.00000000
C        C    0.76035100  0.69013000  0.83161000  0.00000000
C        C    0.30987000  0.07022100  0.83161000  0.00000000
C        C    0.69013000  0.76035100  0.33161000  0.00000000
C        C    0.92977900  0.23964900  0.83161000  0.00000000
C        C    0.23964900  0.92977900  0.33161000  0.00000000
H        H    0.08160000  0.30130000  0.33709900  0.00000000
H        H    0.78030000  0.69870000  0.83709900  0.00000000
H        H    0.30130000  0.08160000  0.83709900  0.00000000
H        H    0.69870000  0.78030000  0.33709900  0.00000000
H        H    0.91840000  0.21970000  0.83709900  0.00000000
H        H    0.21970000  0.91840000  0.33709900  0.00000000
C        C    0.07776100  0.32816000  0.30523000  0.00000000
C        C    0.74960100  0.67184000  0.80523000  0.00000000
C        C    0.32816000  0.07776100  0.80523000  0.00000000
C        C    0.67184000  0.74960100  0.30523000  0.00000000
C        C    0.92223900  0.25039900  0.80523000  0.00000000
C        C    0.25039900  0.92223900  0.30523000  0.00000000
C        C    0.06075900  0.34092900  0.29698000  0.00000000
C        C    0.71983000  0.65907100  0.79698000  0.00000000
C        C    0.34092900  0.06075900  0.79698000  0.00000000
C        C    0.65907100  0.71983000  0.29698000  0.00000000
C        C    0.93924100  0.28017000  0.79698000  0.00000000
C        C    0.28017000  0.93924100  0.29698000  0.00000000
H        H    0.06580000  0.35319900  0.27930100  0.00000000
H        H    0.71260100  0.64680100  0.77930100  0.00000000
H        H    0.35319900  0.06580000  0.77930100  0.00000000
H        H    0.64680100  0.71260100  0.27930100  0.00000000
H        H    0.93420000  0.28739900  0.77930100  0.00000000
H        H    0.28739900  0.93420000  0.27930100  0.00000000
C        C    0.03623900  0.33540900  0.31510100  0.00000000
C        C    0.70083000  0.66459100  0.81510100  0.00000000
C        C    0.33540900  0.03623900  0.81510100  0.00000000
C        C    0.66459100  0.70083000  0.31510100  0.00000000
C        C    0.96376100  0.29917000  0.81510100  0.00000000
C        C    0.29917000  0.96376100  0.31510100  0.00000000
H        H    0.02490000  0.34399900  0.30959900  0.00000000
H        H    0.68090100  0.65600100  0.80959900  0.00000000
H        H    0.34399900  0.02490000  0.80959900  0.00000000
H        H    0.65600100  0.68090100  0.30959900  0.00000000
H        H    0.97510000  0.31909900  0.80959900  0.00000000
H        H    0.31909900  0.97510000  0.30959900  0.00000000
C        C    0.10491000  0.32991100  0.28994900  0.00000000
C        C    0.77499900  0.67008900  0.78994900  0.00000000
C        C    0.32991100  0.10491000  0.78994900  0.00000000
C        C    0.67008900  0.77499900  0.28994900  0.00000000
C        C    0.89509000  0.22500100  0.78994900  0.00000000
C        C    0.22500100  0.89509000  0.28994900  0.00000000
C        C    0.85299000  0.30530000  0.39140000  0.00000000
C        C    0.54769000  0.69470000  0.89140000  0.00000000
C        C    0.30530000  0.85299000  0.89140000  0.00000000
C        C    0.69470000  0.54769000  0.39140000  0.00000000
C        C    0.14701000  0.45231000  0.89140000  0.00000000
C        C    0.45231000  0.14701000  0.39140000  0.00000000
C        C    0.84069900  0.33360000  0.35570000  0.00000000
C        C    0.50709900  0.66640000  0.85570000  0.00000000
C        C    0.33360000  0.84069900  0.85570000  0.00000000
C        C    0.66640000  0.50709900  0.35570000  0.00000000
C        C    0.15930100  0.49290100  0.85570000  0.00000000
C        C    0.49290100  0.15930100  0.35570000  0.00000000
C        C    0.81070100  0.31460000  0.36160100  0.00000000
C        C    0.49610100  0.68540000  0.86160100  0.00000000
C        C    0.31460000  0.81070100  0.86160100  0.00000000
C        C    0.68540000  0.49610100  0.36160100  0.00000000
C        C    0.18929900  0.50389900  0.86160100  0.00000000
C        C    0.50389900  0.18929900  0.36160100  0.00000000
H        H    0.81710000  0.27060000  0.41130100  0.00000000
H        H    0.54650000  0.72940000  0.91130100  0.00000000
H        H    0.27060000  0.81710000  0.91130100  0.00000000
H        H    0.72940000  0.54650000  0.41130100  0.00000000
H        H    0.18290000  0.45350000  0.91130100  0.00000000
H        H    0.45350000  0.18290000  0.41130100  0.00000000
C        C    0.78818100  0.31676000  0.34503000  0.00000000
C        C    0.47142100  0.68324000  0.84503000  0.00000000
C        C    0.31676000  0.78818100  0.84503000  0.00000000
C        C    0.68324000  0.47142100  0.34503000  0.00000000
C        C    0.21181900  0.52857900  0.84503000  0.00000000
C        C    0.52857900  0.21181900  0.34503000  0.00000000
C        C    0.79687000  0.34114000  0.32535000  0.00000000
C        C    0.45573000  0.65886000  0.82535000  0.00000000
C        C    0.34114000  0.79687000  0.82535000  0.00000000
C        C    0.65886000  0.45573000  0.32535000  0.00000000
C        C    0.20313000  0.54427000  0.82535000  0.00000000
C        C    0.54427000  0.20313000  0.32535000  0.00000000
H        H    0.81690000  0.35430000  0.32190000  0.00000000
H        H    0.46260000  0.64570000  0.82190000  0.00000000
H        H    0.35430000  0.81690000  0.82190000  0.00000000
H        H    0.64570000  0.46260000  0.32190000  0.00000000
H        H    0.18310000  0.53740000  0.82190000  0.00000000
H        H    0.53740000  0.18310000  0.32190000  0.00000000
C        C    0.77556900  0.34581000  0.31086100  0.00000000
C        C    0.42975900  0.65419000  0.81086100  0.00000000
C        C    0.34581000  0.77556900  0.81086100  0.00000000
C        C    0.65419000  0.42975900  0.31086100  0.00000000
C        C    0.22443100  0.57024100  0.81086100  0.00000000
C        C    0.57024100  0.22443100  0.31086100  0.00000000
H        H    0.78140000  0.36210000  0.29770100  0.00000000
H        H    0.41930000  0.63790000  0.79770100  0.00000000
H        H    0.36210000  0.78140000  0.79770100  0.00000000
H        H    0.63790000  0.41930000  0.29770100  0.00000000
H        H    0.21860000  0.58070000  0.79770100  0.00000000
H        H    0.58070000  0.21860000  0.29770100  0.00000000
C        C    0.73691000  0.30175000  0.33573100  0.00000000
C        C    0.43516000  0.69825000  0.83573100  0.00000000
C        C    0.30175000  0.73691000  0.83573100  0.00000000
C        C    0.69825000  0.43516000  0.33573100  0.00000000
C        C    0.26309000  0.56484000  0.83573100  0.00000000
C        C    0.56484000  0.26309000  0.33573100  0.00000000
C        C    0.72419900  0.33039900  0.29560000  0.00000000
C        C    0.39380000  0.66960100  0.79560000  0.00000000
C        C    0.33039900  0.72419900  0.79560000  0.00000000
C        C    0.66960100  0.39380000  0.29560000  0.00000000
C        C    0.27580100  0.60620000  0.79560000  0.00000000
C        C    0.60620000  0.27580100  0.29560000  0.00000000
H        H    0.81289900  0.26189900  0.75440000  0.00000000
H        H    0.55100000  0.73810100  0.25440000  0.00000000
H        H    0.26189900  0.81289900  0.25440000  0.00000000
H        H    0.73810100  0.55100000  0.75440000  0.00000000
H        H    0.18710100  0.44900000  0.25440000  0.00000000
H        H    0.44900000  0.18710100  0.75440000  0.00000000
C        C    0.74299100  0.30049000  0.75500000  0.00000000
C        C    0.44250100  0.69951000  0.25500000  0.00000000
C        C    0.30049000  0.74299100  0.25500000  0.00000000
C        C    0.69951000  0.44250100  0.75500000  0.00000000
C        C    0.25700900  0.55749900  0.25500000  0.00000000
C        C    0.55749900  0.25700900  0.75500000  0.00000000
H        H    0.76300100  0.31060000  0.76010000  0.00000000
H        H    0.45240100  0.68940000  0.26010000  0.00000000
H        H    0.31060000  0.76300100  0.26010000  0.00000000
H        H    0.68940000  0.45240100  0.76010000  0.00000000
H        H    0.23699900  0.54759900  0.26010000  0.00000000
H        H    0.54759900  0.23699900  0.76010000  0.00000000
C        C    0.72804100  0.31591000  0.75270100  0.00000000
C        C    0.41213100  0.68409000  0.25270100  0.00000000
C        C    0.31591000  0.72804100  0.25270100  0.00000000
C        C    0.68409000  0.41213100  0.75270100  0.00000000
C        C    0.27195900  0.58786900  0.25270100  0.00000000
C        C    0.58786900  0.27195900  0.75270100  0.00000000
H        H    0.73849900  0.33649900  0.75310000  0.00000000
H        H    0.40200000  0.66350100  0.25310000  0.00000000
H        H    0.33649900  0.73849900  0.25310000  0.00000000
H        H    0.66350100  0.40200000  0.75310000  0.00000000
H        H    0.26150100  0.59800000  0.25310000  0.00000000
H        H    0.59800000  0.26150100  0.75310000  0.00000000
H        H    0.92250000  0.08760000  0.79620000  0.00000000
H        H    0.83490000  0.91240000  0.29620000  0.00000000
H        H    0.08760000  0.92250000  0.29620000  0.00000000
H        H    0.91240000  0.83490000  0.79620000  0.00000000
H        H    0.07750000  0.16510000  0.29620000  0.00000000
H        H    0.16510000  0.07750000  0.79620000  0.00000000
C        C    0.92394000  0.03344000  0.74210000  0.00000000
C        C    0.89050000  0.96656000  0.24210000  0.00000000
C        C    0.03344000  0.92394000  0.24210000  0.00000000
C        C    0.96656000  0.89050000  0.74210000  0.00000000
C        C    0.07606000  0.10950000  0.24210000  0.00000000
C        C    0.10950000  0.07606000  0.74210000  0.00000000
H        H    0.93080020  0.99980020  0.73209900  0.00000000
H        H    0.93100000  0.00019980  0.23209900  0.00000000
H        H    0.99980020  0.93080020  0.23209900  0.00000000
H        H    0.00019980  0.93100000  0.73209900  0.00000000
H        H    0.06919980  0.06900000  0.23209900  0.00000000
H        H    0.06900000  0.06919980  0.73209900  0.00000000
O        O    0.65243100  0.76612100  0.26821100  0.00000000
O        O    0.88631000  0.23387900  0.76821100  0.00000000
O        O    0.76612100  0.65243100  0.76821100  0.00000000
O        O    0.23387900  0.88631000  0.26821100  0.00000000
O        O    0.34756900  0.11369000  0.76821100  0.00000000
O        O    0.11369000  0.34756900  0.26821100  0.00000000
O        O    0.77961000  0.60137900  0.75159000  0.00000000
O        O    0.17823100  0.39862100  0.25159000  0.00000000
O        O    0.60137900  0.77961000  0.25159000  0.00000000
O        O    0.39862100  0.17823100  0.75159000  0.00000000
O        O    0.22039000  0.82176900  0.25159000  0.00000000
O        O    0.82176900  0.22039000  0.75159000  0.00000000
C        C    0.73162900  0.59959000  0.53861900  0.00000000
C        C    0.13203900  0.40041000  0.03861900  0.00000000
C        C    0.59959000  0.73162900  0.03861900  0.00000000
C        C    0.40041000  0.13203900  0.53861900  0.00000000
C        C    0.26837100  0.86796100  0.03861900  0.00000000
C        C    0.86796100  0.26837100  0.53861900  0.00000000
H        H    0.70789900  0.74859900  0.36740000  0.00000000
H        H    0.95930000  0.25140100  0.86740000  0.00000000
H        H    0.74859900  0.70789900  0.86740000  0.00000000
H        H    0.25140100  0.95930000  0.36740000  0.00000000
H        H    0.29210100  0.04070000  0.86740000  0.00000000
H        H    0.04070000  0.29210100  0.36740000  0.00000000
H        H    0.65839800  0.54029900  0.36659900  0.00000000
H        H    0.11809900  0.45970100  0.86659900  0.00000000
H        H    0.54029900  0.65839800  0.86659900  0.00000000
H        H    0.45970100  0.11809900  0.36659900  0.00000000
H        H    0.34160200  0.88190100  0.86659900  0.00000000
H        H    0.88190100  0.34160200  0.36659900  0.00000000
C        C    0.71359900  0.53669900  0.39740100  0.00000000
C        C    0.17690000  0.46330100  0.89740100  0.00000000
C        C    0.53669900  0.71359900  0.89740100  0.00000000
C        C    0.46330100  0.17690000  0.39740100  0.00000000
C        C    0.28640100  0.82310000  0.89740100  0.00000000
C        C    0.82310000  0.28640100  0.39740100  0.00000000
C        C    0.67388000  0.41946900  0.31605100  0.00000000
C        C    0.25441100  0.58053100  0.81605100  0.00000000
C        C    0.41946900  0.67388000  0.81605100  0.00000000
C        C    0.58053100  0.25441100  0.31605100  0.00000000
C        C    0.32612000  0.74558900  0.81605100  0.00000000
C        C    0.74558900  0.32612000  0.31605100  0.00000000
H        H    0.71919900  0.47159900  0.36339900  0.00000000
H        H    0.24760000  0.52840100  0.86339900  0.00000000
H        H    0.47159900  0.71919900  0.86339900  0.00000000
H        H    0.52840100  0.24760000  0.36339900  0.00000000
H        H    0.28080100  0.75240000  0.86339900  0.00000000
H        H    0.75240000  0.28080100  0.36339900  0.00000000
H        H    0.71210000  0.50039900  0.75440000  0.00000000
H        H    0.21170100  0.49960100  0.25440000  0.00000000
H        H    0.50039900  0.71210000  0.25440000  0.00000000
H        H    0.49960100  0.21170100  0.75440000  0.00000000
H        H    0.28790000  0.78829900  0.25440000  0.00000000
H        H    0.78829900  0.28790000  0.75440000  0.00000000
C        C    0.98100040  0.92059910  0.74020000  0.00000000
C        C    0.06040130  0.07940090  0.24020000  0.00000000
C        C    0.92059910  0.98100040  0.24020000  0.00000000
C        C    0.07940090  0.06040130  0.74020000  0.00000000
C        C    0.01899960  0.93959870  0.24020000  0.00000000
C        C    0.93959870  0.01899960  0.74020000  0.00000000
Zn       Zn   0.35670600  0.14874400  0.74201200  0.00000000
Zn       Zn   0.20796200  0.85125600  0.24201200  0.00000000
Zn       Zn   0.14874400  0.35670600  0.24201200  0.00000000
Zn       Zn   0.85125600  0.20796200  0.74201200  0.00000000
Zn       Zn   0.64329400  0.79203800  0.24201200  0.00000000
Zn       Zn   0.79203800  0.64329400  0.74201200  0.00000000
Zn       Zn   0.30703100  0.15961600  0.71294300  0.00000000
Zn       Zn   0.14741500  0.84038400  0.21294300  0.00000000
Zn       Zn   0.15961600  0.30703100  0.21294300  0.00000000
Zn       Zn   0.84038400  0.14741500  0.71294300  0.00000000
Zn       Zn   0.69296900  0.85258500  0.21294300  0.00000000
Zn       Zn   0.85258500  0.69296900  0.71294300  0.00000000
C        C    0.39102000  0.10671100  0.45292100  0.00000000
C        C    0.28430900  0.89328900  0.95292100  0.00000000
C        C    0.10671100  0.39102000  0.95292100  0.00000000
C        C    0.89328900  0.28430900  0.45292100  0.00000000
C        C    0.60898000  0.71569100  0.95292100  0.00000000
C        C    0.71569100  0.60898000  0.45292100  0.00000000
C        C    0.38358100  0.11215100  0.48649900  0.00000000
C        C    0.27143000  0.88784900  0.98649900  0.00000000
C        C    0.11215100  0.38358100  0.98649900  0.00000000
C        C    0.88784900  0.27143000  0.48649900  0.00000000
C        C    0.61641900  0.72857000  0.98649900  0.00000000
C        C    0.72857000  0.61641900  0.48649900  0.00000000
C        C    0.37328900  0.12924000  0.63848900  0.00000000
C        C    0.24404900  0.87076000  0.13848900  0.00000000
C        C    0.12924000  0.37328900  0.13848900  0.00000000
C        C    0.87076000  0.24404900  0.63848900  0.00000000
C        C    0.62671100  0.75595100  0.13848900  0.00000000
C        C    0.75595100  0.62671100  0.63848900  0.00000000
H        H    0.32300000  0.04029900  0.41810000  0.00000000
H        H    0.28270100  0.95970100  0.91810000  0.00000000
H        H    0.04029900  0.32300000  0.91810000  0.00000000
H        H    0.95970100  0.28270100  0.41810000  0.00000000
H        H    0.67700000  0.71729900  0.91810000  0.00000000
H        H    0.71729900  0.67700000  0.41810000  0.00000000
H        H    0.34719900  0.01060000  0.32470000  0.00000000
H        H    0.33659900  0.98940000  0.82470000  0.00000000
H        H    0.01060000  0.34719900  0.82470000  0.00000000
H        H    0.98940000  0.33659900  0.32470000  0.00000000
H        H    0.65280100  0.66340100  0.82470000  0.00000000
H        H    0.66340100  0.65280100  0.32470000  0.00000000
C        C    0.53886000  0.24178900  0.35021000  0.00000000
C        C    0.29707100  0.75821100  0.85021000  0.00000000
C        C    0.24178900  0.53886000  0.85021000  0.00000000
C        C    0.75821100  0.29707100  0.35021000  0.00000000
C        C    0.46114000  0.70292900  0.85021000  0.00000000
C        C    0.70292900  0.46114000  0.35021000  0.00000000
C        C    0.48988900  0.22256000  0.75260900  0.00000000
C        C    0.26732900  0.77744000  0.25260900  0.00000000
C        C    0.22256000  0.48988900  0.25260900  0.00000000
C        C    0.77744000  0.26732900  0.75260900  0.00000000
C        C    0.51011100  0.73267100  0.25260900  0.00000000
C        C    0.73267100  0.51011100  0.75260900  0.00000000
C        C    0.20629800  0.09929900  0.77719100  0.00000000
C        C    0.10699900  0.90070100  0.27719100  0.00000000
C        C    0.09929900  0.20629800  0.27719100  0.00000000
C        C    0.90070100  0.10699900  0.77719100  0.00000000
C        C    0.79370200  0.89300100  0.27719100  0.00000000
C        C    0.89300100  0.79370200  0.77719100  0.00000000
C        C    0.17519890  0.08429900  0.77721000  0.00000000
C        C    0.09089990  0.91570100  0.27721000  0.00000000
C        C    0.08429900  0.17519890  0.27721000  0.00000000
C        C    0.91570100  0.09089990  0.77721000  0.00000000
C        C    0.82480110  0.90910010  0.27721000  0.00000000
C        C    0.90910010  0.82480110  0.77721000  0.00000000
H        H    0.14220100  0.41580000  0.05290000  0.00000000
H        H    0.72640100  0.58420000  0.55290000  0.00000000
H        H    0.41580000  0.14220100  0.55290000  0.00000000
H        H    0.58420000  0.72640100  0.05290000  0.00000000
H        H    0.85779900  0.27359900  0.55290000  0.00000000
H        H    0.27359900  0.85779900  0.05290000  0.00000000
C        C    0.13253900  0.34187000  0.08700000  0.00000000
C        C    0.79066900  0.65813000  0.58700000  0.00000000
C        C    0.34187000  0.13253900  0.58700000  0.00000000
C        C    0.65813000  0.79066900  0.08700000  0.00000000
C        C    0.86746100  0.20933100  0.58700000  0.00000000
C        C    0.20933100  0.86746100  0.08700000  0.00000000
H        H    0.05229900  0.38290000  0.85130000  0.00000000
H        H    0.66939900  0.61710000  0.35130000  0.00000000
H        H    0.38290000  0.05229900  0.35130000  0.00000000
H        H    0.61710000  0.66939900  0.85130000  0.00000000
H        H    0.94770100  0.33060100  0.35130000  0.00000000
H        H    0.33060100  0.94770100  0.85130000  0.00000000
C        C    0.97128900  0.28841000  0.84148100  0.00000000
C        C    0.68287900  0.71159000  0.34148100  0.00000000
C        C    0.28841000  0.97128900  0.34148100  0.00000000
C        C    0.71159000  0.68287900  0.84148100  0.00000000
C        C    0.02871100  0.31712100  0.34148100  0.00000000
C        C    0.31712100  0.02871100  0.84148100  0.00000000
H        H    0.15340000  0.50280100  0.84180000  0.00000000
H        H    0.65059900  0.49719900  0.34180000  0.00000000
H        H    0.50280100  0.15340000  0.34180000  0.00000000
H        H    0.49719900  0.65059900  0.84180000  0.00000000
H        H    0.84660000  0.34940100  0.34180000  0.00000000
H        H    0.34940100  0.84660000  0.84180000  0.00000000
C        C    0.19810000  0.48909900  0.88250100  0.00000000
C        C    0.70900100  0.51090100  0.38250100  0.00000000
C        C    0.48909900  0.19810000  0.38250100  0.00000000
C        C    0.51090100  0.70900100  0.88250100  0.00000000
C        C    0.80190000  0.29099900  0.38250100  0.00000000
C        C    0.29099900  0.80190000  0.88250100  0.00000000
H        H    0.21819900  0.49649900  0.88649900  0.00000000
H        H    0.72170000  0.50350100  0.38649900  0.00000000
H        H    0.49649900  0.21819900  0.38649900  0.00000000
H        H    0.50350100  0.72170000  0.88649900  0.00000000
H        H    0.78180100  0.27830000  0.38649900  0.00000000
H        H    0.27830000  0.78180100  0.88649900  0.00000000
H        H    0.28310000  0.57170100  0.83920000  0.00000000
H        H    0.71139900  0.42829900  0.33920000  0.00000000
H        H    0.57170100  0.28310000  0.33920000  0.00000000
H        H    0.42829900  0.71139900  0.83920000  0.00000000
H        H    0.71690000  0.28860100  0.33920000  0.00000000
H        H    0.28860100  0.71690000  0.83920000  0.00000000
C        C    0.28978900  0.91873900  0.93662900  0.00000000
C        C    0.37105000  0.08126100  0.43662900  0.00000000
C        C    0.91873900  0.28978900  0.43662900  0.00000000
C        C    0.08126100  0.37105000  0.93662900  0.00000000
C        C    0.71021100  0.62895000  0.43662900  0.00000000
C        C    0.62895000  0.71021100  0.93662900  0.00000000
C        C    0.25592100  0.87603100  0.10817900  0.00000000
C        C    0.37989000  0.12396900  0.60817900  0.00000000
C        C    0.87603100  0.25592100  0.60817900  0.00000000
C        C    0.12396900  0.37989000  0.10817900  0.00000000
C        C    0.74407900  0.62011000  0.60817900  0.00000000
C        C    0.62011000  0.74407900  0.10817900  0.00000000
C        C    0.29349110  0.96567110  0.89940000  0.00000000
C        C    0.32782000  0.03432890  0.39940000  0.00000000
C        C    0.96567110  0.29349110  0.39940000  0.00000000
C        C    0.03432890  0.32782000  0.89940000  0.00000000
C        C    0.70650890  0.67218000  0.39940000  0.00000000
C        C    0.67218000  0.70650890  0.89940000  0.00000000
C        C    0.31324160  0.99952060  0.85551100  0.00000000
C        C    0.31372100  0.00047940  0.35551100  0.00000000
C        C    0.99952060  0.31324160  0.35551100  0.00000000
C        C    0.00047940  0.31372100  0.85551100  0.00000000
C        C    0.68675840  0.68627900  0.35551100  0.00000000
C        C    0.68627900  0.68675840  0.85551100  0.00000000
C        C    0.25154000  0.79231900  0.25255900  0.00000000
C        C    0.45922100  0.20768100  0.75255900  0.00000000
C        C    0.79231900  0.25154000  0.75255900  0.00000000
C        C    0.20768100  0.45922100  0.25255900  0.00000000
C        C    0.74846000  0.54077900  0.75255900  0.00000000
C        C    0.54077900  0.74846000  0.25255900  0.00000000
H        H    0.02320100  0.90370100  0.23800000  0.00000000
H        H    0.11950000  0.09629900  0.73800000  0.00000000
H        H    0.90370100  0.02320100  0.73800000  0.00000000
H        H    0.09629900  0.11950000  0.23800000  0.00000000
H        H    0.97679900  0.88050000  0.73800000  0.00000000
H        H    0.88050000  0.97679900  0.23800000  0.00000000
Zn       Zn   0.29576100  0.63484100  0.72810000  0.00000000
Zn       Zn   0.66092000  0.36515900  0.22810000  0.00000000
Zn       Zn   0.63484100  0.29576100  0.22810000  0.00000000
Zn       Zn   0.36515900  0.66092000  0.72810000  0.00000000
Zn       Zn   0.70423900  0.33908000  0.22810000  0.00000000
Zn       Zn   0.33908000  0.70423900  0.72810000  0.00000000
O        O    0.67558000  0.82346100  0.17854000  0.00000000
O        O    0.85211900  0.17653900  0.67854000  0.00000000
O        O    0.82346100  0.67558000  0.67854000  0.00000000
O        O    0.17653900  0.85211900  0.17854000  0.00000000
O        O    0.32442000  0.14788100  0.67854000  0.00000000
O        O    0.14788100  0.32442000  0.17854000  0.00000000
O        O    0.64301100  0.78168100  0.19705100  0.00000000
O        O    0.86133000  0.21831900  0.69705100  0.00000000
O        O    0.78168100  0.64301100  0.69705100  0.00000000
O        O    0.21831900  0.86133000  0.19705100  0.00000000
O        O    0.35698900  0.13867000  0.69705100  0.00000000
O        O    0.13867000  0.35698900  0.19705100  0.00000000
H        H    0.56980100  0.71480100  0.94910000  0.00000000
H        H    0.85500000  0.28519900  0.44910000  0.00000000
H        H    0.71480100  0.56980100  0.44910000  0.00000000
H        H    0.28519900  0.85500000  0.94910000  0.00000000
H        H    0.43019900  0.14500000  0.44910000  0.00000000
H        H    0.14500000  0.43019900  0.94910000  0.00000000
H        H    0.60520000  0.72450100  0.10510000  0.00000000
H        H    0.88069900  0.27549900  0.60510000  0.00000000
H        H    0.72450100  0.60520000  0.60510000  0.00000000
H        H    0.27549900  0.88069900  0.10510000  0.00000000
H        H    0.39480000  0.11930100  0.60510000  0.00000000
H        H    0.11930100  0.39480000  0.10510000  0.00000000
C        C    0.53290000  0.67110100  0.87060000  0.00000000
C        C    0.86179900  0.32889900  0.37060000  0.00000000
C        C    0.67110100  0.53290000  0.37060000  0.00000000
C        C    0.32889900  0.86179900  0.87060000  0.00000000
C        C    0.46710000  0.13820100  0.37060000  0.00000000
C        C    0.13820100  0.46710000  0.87060000  0.00000000
H        H    0.78330000  0.88460100  0.29569900  0.00000000
H        H    0.89869900  0.11539900  0.79569900  0.00000000
H        H    0.88460100  0.78330000  0.79569900  0.00000000
H        H    0.11539900  0.89869900  0.29569900  0.00000000
H        H    0.21670000  0.10130100  0.79569900  0.00000000
H        H    0.10130100  0.21670000  0.29569900  0.00000000
Zn       Zn   0.14874300  0.79203800  0.25798800  0.00000000
Zn       Zn   0.35670500  0.20796200  0.75798800  0.00000000
Zn       Zn   0.79203800  0.14874300  0.75798800  0.00000000
Zn       Zn   0.20796200  0.35670500  0.25798800  0.00000000
Zn       Zn   0.85125700  0.64329500  0.75798800  0.00000000
Zn       Zn   0.64329500  0.85125700  0.25798800  0.00000000
O        O    0.14788100  0.82346100  0.32146000  0.00000000
O        O    0.32442000  0.17653900  0.82146000  0.00000000
O        O    0.82346100  0.14788100  0.82146000  0.00000000
O        O    0.17653900  0.32442000  0.32146000  0.00000000
O        O    0.85211900  0.67558000  0.82146000  0.00000000
O        O    0.67558000  0.85211900  0.32146000  0.00000000
H        H    0.14220000  0.72640100  0.44710000  0.00000000
H        H    0.41579900  0.27359900  0.94710000  0.00000000
H        H    0.72640100  0.14220000  0.94710000  0.00000000
H        H    0.27359900  0.41579900  0.44710000  0.00000000
H        H    0.85780000  0.58420100  0.94710000  0.00000000
H        H    0.58420100  0.85780000  0.44710000  0.00000000
H        H    0.93419900  0.64680000  0.72069900  0.00000000
H        H    0.28739900  0.35320000  0.22069900  0.00000000
H        H    0.64680000  0.93419900  0.22069900  0.00000000
H        H    0.35320000  0.28739900  0.72069900  0.00000000
H        H    0.06580100  0.71260100  0.22069900  0.00000000
H        H    0.71260100  0.06580100  0.72069900  0.00000000
O        O    0.21832100  0.35699100  0.30294900  0.00000000
O        O    0.86133000  0.64300900  0.80294900  0.00000000
O        O    0.35699100  0.21832100  0.80294900  0.00000000
O        O    0.64300900  0.86133000  0.30294900  0.00000000
O        O    0.78167900  0.13867000  0.80294900  0.00000000
O        O    0.13867000  0.78167900  0.30294900  0.00000000
H        H    0.28680000  0.35380100  0.55349990  0.00000000
H        H    0.93299900  0.64619900  0.05349990  0.00000000
H        H    0.35380100  0.28680000  0.05349990  0.00000000
H        H    0.64619900  0.93299900  0.55349990  0.00000000
H        H    0.71320000  0.06700100  0.05349990  0.00000000
H        H    0.06700100  0.71320000  0.55349990  0.00000000
H        H    0.28520000  0.43020100  0.55090040  0.00000000
H        H    0.85499900  0.56979900  0.05090040  0.00000000
H        H    0.43020100  0.28520000  0.05090040  0.00000000
H        H    0.56979900  0.85499900  0.55090040  0.00000000
H        H    0.71480000  0.14500100  0.05090040  0.00000000
H        H    0.14500100  0.71480000  0.55090040  0.00000000
C        C    0.24170100  0.34820100  0.47350900  0.00000000
C        C    0.89350000  0.65179900  0.97350900  0.00000000
C        C    0.34820100  0.24170100  0.97350900  0.00000000
C        C    0.65179900  0.89350000  0.47350900  0.00000000
C        C    0.75829900  0.10650000  0.97350900  0.00000000
C        C    0.10650000  0.75829900  0.47350900  0.00000000
C        C    0.25592200  0.37989100  0.39182100  0.00000000
C        C    0.87603100  0.62010900  0.89182100  0.00000000
C        C    0.37989100  0.25592200  0.89182100  0.00000000
C        C    0.62010900  0.87603100  0.39182100  0.00000000
C        C    0.74407800  0.12396900  0.89182100  0.00000000
C        C    0.12396900  0.74407800  0.39182100  0.00000000
C        C    0.30530100  0.45231100  0.60860000  0.00000000
C        C    0.85299000  0.54768900  0.10860000  0.00000000
C        C    0.45231100  0.30530100  0.10860000  0.00000000
C        C    0.54768900  0.85299000  0.60860000  0.00000000
C        C    0.69469900  0.14701000  0.10860000  0.00000000
C        C    0.14701000  0.69469900  0.60860000  0.00000000
H        H    0.35430100  0.53740100  0.67810000  0.00000000
H        H    0.81690000  0.46259900  0.17810000  0.00000000
H        H    0.53740100  0.35430100  0.17810000  0.00000000
H        H    0.46259900  0.81690000  0.67810000  0.00000000
H        H    0.64569900  0.18310000  0.17810000  0.00000000
H        H    0.18310000  0.64569900  0.67810000  0.00000000
C        C    0.33040100  0.60620100  0.70440000  0.00000000
C        C    0.72420000  0.39379900  0.20440000  0.00000000
C        C    0.60620100  0.33040100  0.20440000  0.00000000
C        C    0.39379900  0.72420000  0.70440000  0.00000000
C        C    0.66959900  0.27580000  0.20440000  0.00000000
C        C    0.27580000  0.66959900  0.70440000  0.00000000
C        C    0.25154000  0.45922100  0.24744100  0.00000000
C        C    0.79231900  0.54077900  0.74744100  0.00000000
C        C    0.45922100  0.25154000  0.74744100  0.00000000
C        C    0.54077900  0.79231900  0.24744100  0.00000000
C        C    0.74846000  0.20768100  0.74744100  0.00000000
C        C    0.20768100  0.74846000  0.24744100  0.00000000
C        C    0.31591100  0.58787100  0.24729900  0.00000000
C        C    0.72804000  0.41212900  0.74729900  0.00000000
C        C    0.58787100  0.31591100  0.74729900  0.00000000
C        C    0.41212900  0.72804000  0.24729900  0.00000000
C        C    0.68408900  0.27196000  0.74729900  0.00000000
C        C    0.27196000  0.68408900  0.24729900  0.00000000
C        C    0.03344000  0.10950100  0.25790000  0.00000000
C        C    0.92393900  0.89049900  0.75790000  0.00000000
C        C    0.10950100  0.03344000  0.75790000  0.00000000
C        C    0.89049900  0.92393900  0.25790000  0.00000000
C        C    0.96656000  0.07606100  0.75790000  0.00000000
C        C    0.07606100  0.96656000  0.25790000  0.00000000
C        C    0.62895000  0.91873900  0.56337080  0.00000000
C        C    0.71021100  0.08126100  0.06337080  0.00000000
C        C    0.91873900  0.62895000  0.06337080  0.00000000
C        C    0.08126100  0.71021100  0.56337080  0.00000000
C        C    0.37105000  0.28978900  0.06337080  0.00000000
C        C    0.28978900  0.37105000  0.56337080  0.00000000
C        C    0.71159100  0.02871000  0.65851900  0.00000000
C        C    0.68288100  0.97129000  0.15851900  0.00000000
C        C    0.02871000  0.71159100  0.15851900  0.00000000
C        C    0.97129000  0.68288100  0.65851900  0.00000000
C        C    0.28840900  0.31711900  0.15851900  0.00000000
C        C    0.31711900  0.28840900  0.65851900  0.00000000
C        C    0.71983100  0.06076000  0.70302000  0.00000000
C        C    0.65907100  0.93924000  0.20302000  0.00000000
C        C    0.06076000  0.71983100  0.20302000  0.00000000
C        C    0.93924000  0.65907100  0.70302000  0.00000000
C        C    0.28016900  0.34092900  0.20302000  0.00000000
C        C    0.34092900  0.28016900  0.70302000  0.00000000
H        H    0.93099940  0.93080050  0.26790100  0.00000000
H        H    0.00019890  0.06919950  0.76790100  0.00000000
H        H    0.93080050  0.93099940  0.76790100  0.00000000
H        H    0.06919950  0.00019890  0.26790100  0.00000000
H        H    0.06900060  0.99980110  0.76790100  0.00000000
H        H    0.99980110  0.06900060  0.26790100  0.00000000
Zn       Zn   0.33333300  0.66666700  0.79015000  0.00000000
Zn       Zn   0.66666700  0.33333300  0.29015000  0.00000000
O        O    0.33333300  0.66666700  0.75000000  0.00000000
O        O    0.66666700  0.33333300  0.25000000  0.00000000
O        O    0.83340500  0.66681000  0.75000000  0.00000000
O        O    0.16659500  0.33319000  0.25000000  0.00000000
O        O    0.66681000  0.83340500  0.25000000  0.00000000
O        O    0.33319000  0.16659500  0.75000000  0.00000000
O        O    0.16659500  0.83340500  0.25000000  0.00000000
O        O    0.83340500  0.16659500  0.75000000  0.00000000
C        C    0.79485000  0.58970000  0.75000000  0.00000000
C        C    0.20515000  0.41030000  0.25000000  0.00000000
C        C    0.58970000  0.79485000  0.25000000  0.00000000
C        C    0.41030000  0.20515000  0.75000000  0.00000000
C        C    0.20515000  0.79485000  0.25000000  0.00000000
C        C    0.79485000  0.20515000  0.75000000  0.00000000
C        C    0.77830000  0.55660000  0.75000000  0.00000000
C        C    0.22170000  0.44340000  0.25000000  0.00000000
C        C    0.55660000  0.77830000  0.25000000  0.00000000
C        C    0.44340000  0.22170000  0.75000000  0.00000000
C        C    0.22170000  0.77830000  0.25000000  0.00000000
C        C    0.77830000  0.22170000  0.75000000  0.00000000
C        C    0.72905000  0.45810000  0.75000000  0.00000000
C        C    0.27095000  0.54190000  0.25000000  0.00000000
C        C    0.45810000  0.72905000  0.25000000  0.00000000
C        C    0.54190000  0.27095000  0.75000000  0.00000000
C        C    0.27095000  0.72905000  0.25000000  0.00000000
C        C    0.72905000  0.27095000  0.75000000  0.00000000
C        C    0.69845000  0.39690000  0.75000000  0.00000000
C        C    0.30155000  0.60310000  0.25000000  0.00000000
C        C    0.39690000  0.69845000  0.25000000  0.00000000
C        C    0.60310000  0.30155000  0.75000000  0.00000000
C        C    0.30155000  0.69845000  0.25000000  0.00000000
C        C    0.69845000  0.30155000  0.75000000  0.00000000
C        C    0.87305000  0.74610000  0.75000000  0.00000000
C        C    0.12695000  0.25390000  0.25000000  0.00000000
C        C    0.74610000  0.87305000  0.25000000  0.00000000
C        C    0.25390000  0.12695000  0.75000000  0.00000000
C        C    0.12695000  0.87305000  0.25000000  0.00000000
C        C    0.87305000  0.12695000  0.75000000  0.00000000
C        C    0.92024950  0.84049900  0.75000000  0.00000000
C        C    0.07975050  0.15950100  0.25000000  0.00000000
C        C    0.84049900  0.92024950  0.25000000  0.00000000
C        C    0.15950100  0.07975050  0.75000000  0.00000000
C        C    0.07975050  0.92024950  0.25000000  0.00000000
C        C    0.92024950  0.07975050  0.75000000  0.00000000
C        C    0.98503520  0.97007040  0.75000000  0.00000000
C        C    0.01496480  0.02992960  0.25000000  0.00000000
C        C    0.97007040  0.98503520  0.25000000  0.00000000
C        C    0.02992960  0.01496480  0.75000000  0.00000000
C        C    0.01496480  0.98503520  0.25000000  0.00000000
C        C    0.98503520  0.01496480  0.75000000  0.00000000
C        C    0.93749900  0.06250000  0.75000000  0.00000000
C        C    0.87499900  0.93750000  0.25000000  0.00000000
C        C    0.06250000  0.93749900  0.25000000  0.00000000
C        C    0.93750000  0.87499900  0.75000000  0.00000000
C        C    0.06250100  0.12500100  0.25000000  0.00000000
C        C    0.12500100  0.06250100  0.75000000  0.00000000
C        C    0.96734900  0.03265000  0.75000000  0.00000000
C        C    0.93469900  0.96735000  0.25000000  0.00000000
C        C    0.03265000  0.96734900  0.25000000  0.00000000
C        C    0.96735000  0.93469900  0.75000000  0.00000000
C        C    0.03265100  0.06530100  0.25000000  0.00000000
C        C    0.06530100  0.03265100  0.75000000  0.00000000
C        C    0.25335100  0.50670100  0.25000000  0.00000000
C        C    0.74665000  0.49329900  0.75000000  0.00000000
C        C    0.50670100  0.25335100  0.75000000  0.00000000
C        C    0.49329900  0.74665000  0.25000000  0.00000000
C        C    0.74664900  0.25335000  0.75000000  0.00000000
C        C    0.25335000  0.74664900  0.25000000  0.00000000
C        C    0.31829100  0.63658100  0.25000000  0.00000000
C        C    0.68171000  0.36341900  0.75000000  0.00000000
C        C    0.63658100  0.31829100  0.75000000  0.00000000
C        C    0.36341900  0.68171000  0.25000000  0.00000000
C        C    0.68170900  0.31829000  0.75000000  0.00000000
C        C    0.31829000  0.68170900  0.25000000  0.00000000
C        C    0.11020100  0.22040100  0.25000000  0.00000000
C        C    0.88980000  0.77959900  0.75000000  0.00000000
C        C    0.22040100  0.11020100  0.75000000  0.00000000
C        C    0.77959900  0.88980000  0.25000000  0.00000000
C        C    0.88979900  0.11020000  0.75000000  0.00000000
C        C    0.11020000  0.88979900  0.25000000  0.00000000
C        C    0.69674100  0.34837000  0.75000000  0.00000000
C        C    0.34837100  0.65163000  0.25000000  0.00000000
C        C    0.34837000  0.69674100  0.25000000  0.00000000
C        C    0.65163000  0.34837100  0.75000000  0.00000000
C        C    0.30325900  0.65162900  0.25000000  0.00000000
C        C    0.65162900  0.30325900  0.75000000  0.00000000
H        H    0.64129900  0.28259900  0.75000000  0.00000000
H        H    0.35870000  0.71740100  0.25000000  0.00000000
H        H    0.28259900  0.64129900  0.25000000  0.00000000
H        H    0.71740100  0.35870000  0.75000000  0.00000000
H        H    0.35870100  0.64130000  0.25000000  0.00000000
H        H    0.64130000  0.35870100  0.75000000  0.00000000
C        C    0.01507920  0.98491980  0.75000000  0.00000000
C        C    0.03015940  0.01508020  0.25000000  0.00000000
C        C    0.98491980  0.01507920  0.25000000  0.00000000
C        C    0.01508020  0.03015940  0.75000000  0.00000000
C        C    0.98492080  0.96984060  0.25000000  0.00000000
C        C    0.96984060  0.98492080  0.75000000  0.00000000
H        H    0.02539960  0.97460070  0.75000000  0.00000000
H        H    0.05079890  0.02539930  0.25000000  0.00000000
H        H    0.97460070  0.02539960  0.25000000  0.00000000
H        H    0.02539930  0.05079890  0.75000000  0.00000000
H        H    0.97460040  0.94920110  0.25000000  0.00000000
H        H    0.94920110  0.97460040  0.75000000  0.00000000
