data_MOF-205

_cell_length_a  30.35300000
_cell_length_b  30.35300000
_cell_length_c  30.35300000
_cell_angle_alpha  90.00000000
_cell_angle_beta  90.00000000
_cell_angle_gamma  90.00000000


_symmetry_space_group_name_Hall ' P 1'
_symmetry_space_group_name_H-M  'P 1'
_symmetry_Int_Tables_number     1

loop_
_atom_site_label
_atom_site_type_symbol
_atom_site_fract_x
_atom_site_fract_y
_atom_site_fract_z
_atom_site_charge
O        O    0.55094000  0.91182000  0.22472000  0.00000000
C        C    0.61051000  0.84098000  0.23293000  0.00000000
H        H    0.58310000  0.83490000  0.22060000  0.00000000
C        C    0.64162000  0.80846000  0.23315000  0.00000000
H        H    0.63500000  0.78070000  0.22200000  0.00000000
O        O    0.44906000  0.08818000  0.22472000  0.00000000
C        C    0.38949000  0.15902000  0.23293000  0.00000000
H        H    0.41690000  0.16510000  0.22060000  0.00000000
C        C    0.35838000  0.19154000  0.23315000  0.00000000
H        H    0.36500000  0.21930000  0.22200000  0.00000000
O        O    0.44906000  0.91182000  0.77528000  0.00000000
C        C    0.38949000  0.84098000  0.76707000  0.00000000
H        H    0.41690000  0.83490000  0.77940000  0.00000000
C        C    0.35838000  0.80846000  0.76685000  0.00000000
H        H    0.36500000  0.78070000  0.77800000  0.00000000
O        O    0.55094000  0.08818000  0.77528000  0.00000000
C        C    0.61051000  0.15902000  0.76707000  0.00000000
H        H    0.58310000  0.16510000  0.77940000  0.00000000
C        C    0.64162000  0.19154000  0.76685000  0.00000000
H        H    0.63500000  0.21930000  0.77800000  0.00000000
O        O    0.22472000  0.55094000  0.91182000  0.00000000
C        C    0.23293000  0.61051000  0.84098000  0.00000000
H        H    0.22060000  0.58310000  0.83490000  0.00000000
C        C    0.23315000  0.64162000  0.80846000  0.00000000
H        H    0.22200000  0.63500000  0.78070000  0.00000000
O        O    0.22472000  0.44906000  0.08818000  0.00000000
C        C    0.23293000  0.38949000  0.15902000  0.00000000
H        H    0.22060000  0.41690000  0.16510000  0.00000000
C        C    0.23315000  0.35838000  0.19154000  0.00000000
H        H    0.22200000  0.36500000  0.21930000  0.00000000
O        O    0.77528000  0.44906000  0.91182000  0.00000000
C        C    0.76707000  0.38949000  0.84098000  0.00000000
H        H    0.77940000  0.41690000  0.83490000  0.00000000
C        C    0.76685000  0.35838000  0.80846000  0.00000000
H        H    0.77800000  0.36500000  0.78070000  0.00000000
O        O    0.77528000  0.55094000  0.08818000  0.00000000
C        C    0.76707000  0.61051000  0.15902000  0.00000000
H        H    0.77940000  0.58310000  0.16510000  0.00000000
C        C    0.76685000  0.64162000  0.19154000  0.00000000
H        H    0.77800000  0.63500000  0.21930000  0.00000000
O        O    0.91182000  0.22472000  0.55094000  0.00000000
C        C    0.84098000  0.23293000  0.61051000  0.00000000
H        H    0.83490000  0.22060000  0.58310000  0.00000000
C        C    0.80846000  0.23315000  0.64162000  0.00000000
H        H    0.78070000  0.22200000  0.63500000  0.00000000
O        O    0.08818000  0.22472000  0.44906000  0.00000000
C        C    0.15902000  0.23293000  0.38949000  0.00000000
H        H    0.16510000  0.22060000  0.41690000  0.00000000
C        C    0.19154000  0.23315000  0.35838000  0.00000000
H        H    0.21930000  0.22200000  0.36500000  0.00000000
O        O    0.91182000  0.77528000  0.44906000  0.00000000
C        C    0.84098000  0.76707000  0.38949000  0.00000000
H        H    0.83490000  0.77940000  0.41690000  0.00000000
C        C    0.80846000  0.76685000  0.35838000  0.00000000
H        H    0.78070000  0.77800000  0.36500000  0.00000000
O        O    0.08818000  0.77528000  0.55094000  0.00000000
C        C    0.15902000  0.76707000  0.61051000  0.00000000
H        H    0.16510000  0.77940000  0.58310000  0.00000000
C        C    0.19154000  0.76685000  0.64162000  0.00000000
H        H    0.21930000  0.77800000  0.63500000  0.00000000
O        O    0.41182000  0.05094000  0.27528000  0.00000000
C        C    0.34098000  0.11051000  0.26707000  0.00000000
H        H    0.33490000  0.08310000  0.27940000  0.00000000
C        C    0.30846000  0.14162000  0.26685000  0.00000000
H        H    0.28070000  0.13500000  0.27800000  0.00000000
O        O    0.58818000  0.94906000  0.27528000  0.00000000
C        C    0.65902000  0.88949000  0.26707000  0.00000000
H        H    0.66510000  0.91690000  0.27940000  0.00000000
C        C    0.69154000  0.85838000  0.26685000  0.00000000
H        H    0.71930000  0.86500000  0.27800000  0.00000000
O        O    0.41182000  0.94906000  0.72472000  0.00000000
C        C    0.34098000  0.88949000  0.73293000  0.00000000
H        H    0.33490000  0.91690000  0.72060000  0.00000000
C        C    0.30846000  0.85838000  0.73315000  0.00000000
H        H    0.28070000  0.86500000  0.72200000  0.00000000
O        O    0.58818000  0.05094000  0.72472000  0.00000000
C        C    0.65902000  0.11051000  0.73293000  0.00000000
H        H    0.66510000  0.08310000  0.72060000  0.00000000
C        C    0.69154000  0.14162000  0.73315000  0.00000000
H        H    0.71930000  0.13500000  0.72200000  0.00000000
O        O    0.05094000  0.72472000  0.58818000  0.00000000
C        C    0.11051000  0.73293000  0.65902000  0.00000000
H        H    0.08310000  0.72060000  0.66510000  0.00000000
C        C    0.14162000  0.73315000  0.69154000  0.00000000
H        H    0.13500000  0.72200000  0.71930000  0.00000000
O        O    0.94906000  0.72472000  0.41182000  0.00000000
C        C    0.88949000  0.73293000  0.34098000  0.00000000
H        H    0.91690000  0.72060000  0.33490000  0.00000000
C        C    0.85838000  0.73315000  0.30846000  0.00000000
H        H    0.86500000  0.72200000  0.28070000  0.00000000
O        O    0.94906000  0.27528000  0.58818000  0.00000000
C        C    0.88949000  0.26707000  0.65902000  0.00000000
H        H    0.91690000  0.27940000  0.66510000  0.00000000
C        C    0.85838000  0.26685000  0.69154000  0.00000000
H        H    0.86500000  0.27800000  0.71930000  0.00000000
O        O    0.05094000  0.27528000  0.41182000  0.00000000
C        C    0.11051000  0.26707000  0.34098000  0.00000000
H        H    0.08310000  0.27940000  0.33490000  0.00000000
C        C    0.14162000  0.26685000  0.30846000  0.00000000
H        H    0.13500000  0.27800000  0.28070000  0.00000000
O        O    0.72472000  0.41182000  0.94906000  0.00000000
C        C    0.73293000  0.34098000  0.88949000  0.00000000
H        H    0.72060000  0.33490000  0.91690000  0.00000000
C        C    0.73315000  0.30846000  0.85838000  0.00000000
H        H    0.72200000  0.28070000  0.86500000  0.00000000
O        O    0.72472000  0.58818000  0.05094000  0.00000000
C        C    0.73293000  0.65902000  0.11051000  0.00000000
H        H    0.72060000  0.66510000  0.08310000  0.00000000
C        C    0.73315000  0.69154000  0.14162000  0.00000000
H        H    0.72200000  0.71930000  0.13500000  0.00000000
O        O    0.27528000  0.41182000  0.05094000  0.00000000
C        C    0.26707000  0.34098000  0.11051000  0.00000000
H        H    0.27940000  0.33490000  0.08310000  0.00000000
C        C    0.26685000  0.30846000  0.14162000  0.00000000
H        H    0.27800000  0.28070000  0.13500000  0.00000000
O        O    0.27528000  0.58818000  0.94906000  0.00000000
C        C    0.26707000  0.65902000  0.88949000  0.00000000
H        H    0.27940000  0.66510000  0.91690000  0.00000000
C        C    0.26685000  0.69154000  0.85838000  0.00000000
H        H    0.27800000  0.71930000  0.86500000  0.00000000
O        O    0.44906000  0.08818000  0.77528000  0.00000000
C        C    0.38949000  0.15902000  0.76707000  0.00000000
H        H    0.41690000  0.16510000  0.77940000  0.00000000
C        C    0.35838000  0.19154000  0.76685000  0.00000000
H        H    0.36500000  0.21930000  0.77800000  0.00000000
O        O    0.55094000  0.91182000  0.77528000  0.00000000
C        C    0.61051000  0.84098000  0.76707000  0.00000000
H        H    0.58310000  0.83490000  0.77940000  0.00000000
C        C    0.64162000  0.80846000  0.76685000  0.00000000
H        H    0.63500000  0.78070000  0.77800000  0.00000000
O        O    0.55094000  0.08818000  0.22472000  0.00000000
C        C    0.61051000  0.15902000  0.23293000  0.00000000
H        H    0.58310000  0.16510000  0.22060000  0.00000000
C        C    0.64162000  0.19154000  0.23315000  0.00000000
H        H    0.63500000  0.21930000  0.22200000  0.00000000
O        O    0.44906000  0.91182000  0.22472000  0.00000000
C        C    0.38949000  0.84098000  0.23293000  0.00000000
H        H    0.41690000  0.83490000  0.22060000  0.00000000
C        C    0.35838000  0.80846000  0.23315000  0.00000000
H        H    0.36500000  0.78070000  0.22200000  0.00000000
O        O    0.77528000  0.44906000  0.08818000  0.00000000
C        C    0.76707000  0.38949000  0.15902000  0.00000000
H        H    0.77940000  0.41690000  0.16510000  0.00000000
C        C    0.76685000  0.35838000  0.19154000  0.00000000
H        H    0.77800000  0.36500000  0.21930000  0.00000000
O        O    0.77528000  0.55094000  0.91182000  0.00000000
C        C    0.76707000  0.61051000  0.84098000  0.00000000
H        H    0.77940000  0.58310000  0.83490000  0.00000000
C        C    0.76685000  0.64162000  0.80846000  0.00000000
H        H    0.77800000  0.63500000  0.78070000  0.00000000
O        O    0.22472000  0.55094000  0.08818000  0.00000000
C        C    0.23293000  0.61051000  0.15902000  0.00000000
H        H    0.22060000  0.58310000  0.16510000  0.00000000
C        C    0.23315000  0.64162000  0.19154000  0.00000000
H        H    0.22200000  0.63500000  0.21930000  0.00000000
O        O    0.22472000  0.44906000  0.91182000  0.00000000
C        C    0.23293000  0.38949000  0.84098000  0.00000000
H        H    0.22060000  0.41690000  0.83490000  0.00000000
C        C    0.23315000  0.35838000  0.80846000  0.00000000
H        H    0.22200000  0.36500000  0.78070000  0.00000000
O        O    0.08818000  0.77528000  0.44906000  0.00000000
C        C    0.15902000  0.76707000  0.38949000  0.00000000
H        H    0.16510000  0.77940000  0.41690000  0.00000000
C        C    0.19154000  0.76685000  0.35838000  0.00000000
H        H    0.21930000  0.77800000  0.36500000  0.00000000
O        O    0.91182000  0.77528000  0.55094000  0.00000000
C        C    0.84098000  0.76707000  0.61051000  0.00000000
H        H    0.83490000  0.77940000  0.58310000  0.00000000
C        C    0.80846000  0.76685000  0.64162000  0.00000000
H        H    0.78070000  0.77800000  0.63500000  0.00000000
O        O    0.08818000  0.22472000  0.55094000  0.00000000
C        C    0.15902000  0.23293000  0.61051000  0.00000000
H        H    0.16510000  0.22060000  0.58310000  0.00000000
C        C    0.19154000  0.23315000  0.64162000  0.00000000
H        H    0.21930000  0.22200000  0.63500000  0.00000000
O        O    0.91182000  0.22472000  0.44906000  0.00000000
C        C    0.84098000  0.23293000  0.38949000  0.00000000
H        H    0.83490000  0.22060000  0.41690000  0.00000000
C        C    0.80846000  0.23315000  0.35838000  0.00000000
H        H    0.78070000  0.22200000  0.36500000  0.00000000
O        O    0.58818000  0.94906000  0.72472000  0.00000000
C        C    0.65902000  0.88949000  0.73293000  0.00000000
H        H    0.66510000  0.91690000  0.72060000  0.00000000
C        C    0.69154000  0.85838000  0.73315000  0.00000000
H        H    0.71930000  0.86500000  0.72200000  0.00000000
O        O    0.41182000  0.05094000  0.72472000  0.00000000
C        C    0.34098000  0.11051000  0.73293000  0.00000000
H        H    0.33490000  0.08310000  0.72060000  0.00000000
C        C    0.30846000  0.14162000  0.73315000  0.00000000
H        H    0.28070000  0.13500000  0.72200000  0.00000000
O        O    0.58818000  0.05094000  0.27528000  0.00000000
C        C    0.65902000  0.11051000  0.26707000  0.00000000
H        H    0.66510000  0.08310000  0.27940000  0.00000000
C        C    0.69154000  0.14162000  0.26685000  0.00000000
H        H    0.71930000  0.13500000  0.27800000  0.00000000
O        O    0.41182000  0.94906000  0.27528000  0.00000000
C        C    0.34098000  0.88949000  0.26707000  0.00000000
H        H    0.33490000  0.91690000  0.27940000  0.00000000
C        C    0.30846000  0.85838000  0.26685000  0.00000000
H        H    0.28070000  0.86500000  0.27800000  0.00000000
O        O    0.94906000  0.27528000  0.41182000  0.00000000
C        C    0.88949000  0.26707000  0.34098000  0.00000000
H        H    0.91690000  0.27940000  0.33490000  0.00000000
C        C    0.85838000  0.26685000  0.30846000  0.00000000
H        H    0.86500000  0.27800000  0.28070000  0.00000000
O        O    0.05094000  0.27528000  0.58818000  0.00000000
C        C    0.11051000  0.26707000  0.65902000  0.00000000
H        H    0.08310000  0.27940000  0.66510000  0.00000000
C        C    0.14162000  0.26685000  0.69154000  0.00000000
H        H    0.13500000  0.27800000  0.71930000  0.00000000
O        O    0.05094000  0.72472000  0.41182000  0.00000000
C        C    0.11051000  0.73293000  0.34098000  0.00000000
H        H    0.08310000  0.72060000  0.33490000  0.00000000
C        C    0.14162000  0.73315000  0.30846000  0.00000000
H        H    0.13500000  0.72200000  0.28070000  0.00000000
O        O    0.94906000  0.72472000  0.58818000  0.00000000
C        C    0.88949000  0.73293000  0.65902000  0.00000000
H        H    0.91690000  0.72060000  0.66510000  0.00000000
C        C    0.85838000  0.73315000  0.69154000  0.00000000
H        H    0.86500000  0.72200000  0.71930000  0.00000000
O        O    0.27528000  0.58818000  0.05094000  0.00000000
C        C    0.26707000  0.65902000  0.11051000  0.00000000
H        H    0.27940000  0.66510000  0.08310000  0.00000000
C        C    0.26685000  0.69154000  0.14162000  0.00000000
H        H    0.27800000  0.71930000  0.13500000  0.00000000
O        O    0.27528000  0.41182000  0.94906000  0.00000000
C        C    0.26707000  0.34098000  0.88949000  0.00000000
H        H    0.27940000  0.33490000  0.91690000  0.00000000
C        C    0.26685000  0.30846000  0.85838000  0.00000000
H        H    0.27800000  0.28070000  0.86500000  0.00000000
O        O    0.72472000  0.58818000  0.94906000  0.00000000
C        C    0.73293000  0.65902000  0.88949000  0.00000000
H        H    0.72060000  0.66510000  0.91690000  0.00000000
C        C    0.73315000  0.69154000  0.85838000  0.00000000
H        H    0.72200000  0.71930000  0.86500000  0.00000000
O        O    0.72472000  0.41182000  0.05094000  0.00000000
C        C    0.73293000  0.34098000  0.11051000  0.00000000
H        H    0.72060000  0.33490000  0.08310000  0.00000000
C        C    0.73315000  0.30846000  0.14162000  0.00000000
H        H    0.72200000  0.28070000  0.13500000  0.00000000
Zn       Zn   0.50000000  0.94807000  0.21258000  0.00000000
O        O    0.50000000  0.96297000  0.15039000  0.00000000
C        C    0.50000000  0.05020000  0.06330000  0.00000000
H        H    0.50000000  0.07380000  0.08280000  0.00000000
C        C    0.50000000  0.05820000  0.01774000  0.00000000
H        H    0.50000000  0.08650000  0.00610000  0.00000000
Zn       Zn   0.50000000  0.05194000  0.21258000  0.00000000
O        O    0.50000000  0.03703000  0.15039000  0.00000000
C        C    0.50000000  0.97887000  0.00860000  0.00000000
C        C    0.50000000  0.97530000  0.05350000  0.00000000
H        H    0.50000000  0.94620000  0.06300000  0.00000000
Zn       Zn   0.50000000  0.94807000  0.78742000  0.00000000
O        O    0.50000000  0.96297000  0.84961000  0.00000000
C        C    0.50000000  0.02113000  0.99140000  0.00000000
C        C    0.50000000  0.02470000  0.94650000  0.00000000
H        H    0.50000000  0.05380000  0.93700000  0.00000000
Zn       Zn   0.50000000  0.05194000  0.78742000  0.00000000
O        O    0.50000000  0.03703000  0.84961000  0.00000000
C        C    0.50000000  0.94980000  0.93670000  0.00000000
H        H    0.50000000  0.92620000  0.91720000  0.00000000
C        C    0.50000000  0.94180000  0.98226000  0.00000000
H        H    0.50000000  0.91350000  0.99390000  0.00000000
Zn       Zn   0.21258000  0.50000000  0.94807000  0.00000000
O        O    0.15039000  0.50000000  0.96297000  0.00000000
C        C    0.00860000  0.50000000  0.02113000  0.00000000
C        C    0.05350000  0.50000000  0.02470000  0.00000000
H        H    0.06300000  0.50000000  0.05380000  0.00000000
Zn       Zn   0.21258000  0.50000000  0.05194000  0.00000000
O        O    0.15039000  0.50000000  0.03703000  0.00000000
C        C    0.06330000  0.50000000  0.94980000  0.00000000
H        H    0.08280000  0.50000000  0.92620000  0.00000000
C        C    0.01774000  0.50000000  0.94180000  0.00000000
H        H    0.00610000  0.50000000  0.91350000  0.00000000
Zn       Zn   0.78742000  0.50000000  0.94807000  0.00000000
O        O    0.84961000  0.50000000  0.96297000  0.00000000
C        C    0.93670000  0.50000000  0.05020000  0.00000000
H        H    0.91720000  0.50000000  0.07380000  0.00000000
C        C    0.98226000  0.50000000  0.05820000  0.00000000
H        H    0.99390000  0.50000000  0.08650000  0.00000000
Zn       Zn   0.78742000  0.50000000  0.05194000  0.00000000
O        O    0.84961000  0.50000000  0.03703000  0.00000000
C        C    0.99140000  0.50000000  0.97887000  0.00000000
C        C    0.94650000  0.50000000  0.97530000  0.00000000
H        H    0.93700000  0.50000000  0.94620000  0.00000000
Zn       Zn   0.94807000  0.21258000  0.50000000  0.00000000
O        O    0.96297000  0.15039000  0.50000000  0.00000000
C        C    0.02113000  0.00860000  0.50000000  0.00000000
C        C    0.02470000  0.05350000  0.50000000  0.00000000
H        H    0.05380000  0.06300000  0.50000000  0.00000000
Zn       Zn   0.05194000  0.21258000  0.50000000  0.00000000
O        O    0.03703000  0.15039000  0.50000000  0.00000000
C        C    0.94980000  0.06330000  0.50000000  0.00000000
H        H    0.92620000  0.08280000  0.50000000  0.00000000
C        C    0.94180000  0.01774000  0.50000000  0.00000000
H        H    0.91350000  0.00610000  0.50000000  0.00000000
Zn       Zn   0.94807000  0.78742000  0.50000000  0.00000000
O        O    0.96297000  0.84961000  0.50000000  0.00000000
C        C    0.05020000  0.93670000  0.50000000  0.00000000
H        H    0.07380000  0.91720000  0.50000000  0.00000000
C        C    0.05820000  0.98226000  0.50000000  0.00000000
H        H    0.08650000  0.99390000  0.50000000  0.00000000
Zn       Zn   0.05194000  0.78742000  0.50000000  0.00000000
O        O    0.03703000  0.84961000  0.50000000  0.00000000
C        C    0.97887000  0.99140000  0.50000000  0.00000000
C        C    0.97530000  0.94650000  0.50000000  0.00000000
H        H    0.94620000  0.93700000  0.50000000  0.00000000
Zn       Zn   0.44806000  0.00000000  0.28742000  0.00000000
O        O    0.46297000  0.00000000  0.34961000  0.00000000
C        C    0.55020000  0.00000000  0.43670000  0.00000000
H        H    0.57380000  0.00000000  0.41720000  0.00000000
C        C    0.55820000  0.00000000  0.48226000  0.00000000
H        H    0.58650000  0.00000000  0.49390000  0.00000000
Zn       Zn   0.55194000  0.00000000  0.28742000  0.00000000
O        O    0.53703000  0.00000000  0.34961000  0.00000000
C        C    0.47887000  0.00000000  0.49140000  0.00000000
C        C    0.47530000  0.00000000  0.44650000  0.00000000
H        H    0.44620000  0.00000000  0.43700000  0.00000000
Zn       Zn   0.44806000  0.00000000  0.71258000  0.00000000
O        O    0.46297000  0.00000000  0.65039000  0.00000000
C        C    0.52113000  0.00000000  0.50860000  0.00000000
C        C    0.52470000  0.00000000  0.55350000  0.00000000
H        H    0.55380000  0.00000000  0.56300000  0.00000000
Zn       Zn   0.55194000  0.00000000  0.71258000  0.00000000
O        O    0.53703000  0.00000000  0.65039000  0.00000000
C        C    0.44980000  0.00000000  0.56330000  0.00000000
H        H    0.42620000  0.00000000  0.58280000  0.00000000
C        C    0.44180000  0.00000000  0.51774000  0.00000000
H        H    0.41350000  0.00000000  0.50610000  0.00000000
Zn       Zn   0.00000000  0.71258000  0.55194000  0.00000000
O        O    0.00000000  0.65039000  0.53703000  0.00000000
C        C    0.00000000  0.50860000  0.47887000  0.00000000
C        C    0.00000000  0.55350000  0.47530000  0.00000000
H        H    0.00000000  0.56300000  0.44620000  0.00000000
Zn       Zn   0.00000000  0.71258000  0.44806000  0.00000000
O        O    0.00000000  0.65039000  0.46297000  0.00000000
C        C    0.00000000  0.56330000  0.55020000  0.00000000
H        H    0.00000000  0.58280000  0.57380000  0.00000000
C        C    0.00000000  0.51774000  0.55820000  0.00000000
H        H    0.00000000  0.50610000  0.58650000  0.00000000
Zn       Zn   0.00000000  0.28742000  0.55194000  0.00000000
O        O    0.00000000  0.34961000  0.53703000  0.00000000
C        C    0.00000000  0.43670000  0.44980000  0.00000000
H        H    0.00000000  0.41720000  0.42620000  0.00000000
C        C    0.00000000  0.48226000  0.44180000  0.00000000
H        H    0.00000000  0.49390000  0.41350000  0.00000000
Zn       Zn   0.00000000  0.28742000  0.44806000  0.00000000
O        O    0.00000000  0.34961000  0.46297000  0.00000000
C        C    0.00000000  0.49140000  0.52113000  0.00000000
C        C    0.00000000  0.44650000  0.52470000  0.00000000
H        H    0.00000000  0.43700000  0.55380000  0.00000000
Zn       Zn   0.71258000  0.44806000  0.00000000  0.00000000
O        O    0.65039000  0.46297000  0.00000000  0.00000000
C        C    0.56330000  0.55020000  0.00000000  0.00000000
H        H    0.58280000  0.57380000  0.00000000  0.00000000
C        C    0.51774000  0.55820000  0.00000000  0.00000000
H        H    0.50610000  0.58650000  0.00000000  0.00000000
Zn       Zn   0.71258000  0.55194000  0.00000000  0.00000000
O        O    0.65039000  0.53703000  0.00000000  0.00000000
C        C    0.50860000  0.47887000  0.00000000  0.00000000
C        C    0.55350000  0.47530000  0.00000000  0.00000000
H        H    0.56300000  0.44620000  0.00000000  0.00000000
Zn       Zn   0.28742000  0.44806000  0.00000000  0.00000000
O        O    0.34961000  0.46297000  0.00000000  0.00000000
C        C    0.49140000  0.52113000  0.00000000  0.00000000
C        C    0.44650000  0.52470000  0.00000000  0.00000000
H        H    0.43700000  0.55380000  0.00000000  0.00000000
Zn       Zn   0.28742000  0.55194000  0.00000000  0.00000000
O        O    0.34961000  0.53703000  0.00000000  0.00000000
C        C    0.43670000  0.44980000  0.00000000  0.00000000
H        H    0.41720000  0.42620000  0.00000000  0.00000000
C        C    0.48226000  0.44180000  0.00000000  0.00000000
H        H    0.49390000  0.41350000  0.00000000  0.00000000
O        O    0.50000000  0.00000000  0.25000000  0.00000000
O        O    0.50000000  0.00000000  0.75000000  0.00000000
O        O    0.25000000  0.50000000  0.00000000  0.00000000
O        O    0.75000000  0.50000000  0.00000000  0.00000000
O        O    0.00000000  0.25000000  0.50000000  0.00000000
O        O    0.00000000  0.75000000  0.50000000  0.00000000
C        C    0.58289000  0.91711000  0.25000000  0.00000000
C        C    0.61769000  0.88231000  0.25000000  0.00000000
C        C    0.68284000  0.81716000  0.25000000  0.00000000
C        C    0.71702000  0.78298000  0.25000000  0.00000000
C        C    0.41711000  0.08289000  0.25000000  0.00000000
C        C    0.38231000  0.11769000  0.25000000  0.00000000
C        C    0.31716000  0.18284000  0.25000000  0.00000000
C        C    0.28298000  0.21702000  0.25000000  0.00000000
C        C    0.41711000  0.91711000  0.75000000  0.00000000
C        C    0.38231000  0.88231000  0.75000000  0.00000000
C        C    0.31716000  0.81716000  0.75000000  0.00000000
C        C    0.28298000  0.78298000  0.75000000  0.00000000
C        C    0.58289000  0.08289000  0.75000000  0.00000000
C        C    0.61769000  0.11769000  0.75000000  0.00000000
C        C    0.68284000  0.18284000  0.75000000  0.00000000
C        C    0.71702000  0.21702000  0.75000000  0.00000000
C        C    0.25000000  0.58289000  0.91711000  0.00000000
C        C    0.25000000  0.61769000  0.88231000  0.00000000
C        C    0.25000000  0.68284000  0.81716000  0.00000000
C        C    0.25000000  0.71702000  0.78298000  0.00000000
C        C    0.25000000  0.41711000  0.08289000  0.00000000
C        C    0.25000000  0.38231000  0.11769000  0.00000000
C        C    0.25000000  0.31716000  0.18284000  0.00000000
C        C    0.25000000  0.28298000  0.21702000  0.00000000
C        C    0.75000000  0.41711000  0.91711000  0.00000000
C        C    0.75000000  0.38231000  0.88231000  0.00000000
C        C    0.75000000  0.31716000  0.81716000  0.00000000
C        C    0.75000000  0.28298000  0.78298000  0.00000000
C        C    0.75000000  0.58289000  0.08289000  0.00000000
C        C    0.75000000  0.61769000  0.11769000  0.00000000
C        C    0.75000000  0.68284000  0.18284000  0.00000000
C        C    0.75000000  0.71702000  0.21702000  0.00000000
C        C    0.91711000  0.25000000  0.58289000  0.00000000
C        C    0.88231000  0.25000000  0.61769000  0.00000000
C        C    0.81716000  0.25000000  0.68284000  0.00000000
C        C    0.78298000  0.25000000  0.71702000  0.00000000
C        C    0.08289000  0.25000000  0.41711000  0.00000000
C        C    0.11769000  0.25000000  0.38231000  0.00000000
C        C    0.18284000  0.25000000  0.31716000  0.00000000
C        C    0.21702000  0.25000000  0.28298000  0.00000000
C        C    0.91711000  0.75000000  0.41711000  0.00000000
C        C    0.88231000  0.75000000  0.38231000  0.00000000
C        C    0.81716000  0.75000000  0.31716000  0.00000000
C        C    0.78298000  0.75000000  0.28298000  0.00000000
C        C    0.08289000  0.75000000  0.58289000  0.00000000
C        C    0.11769000  0.75000000  0.61769000  0.00000000
C        C    0.18284000  0.75000000  0.68284000  0.00000000
C        C    0.21702000  0.75000000  0.71702000  0.00000000
C        C    0.41711000  0.08289000  0.75000000  0.00000000
C        C    0.38231000  0.11769000  0.75000000  0.00000000
C        C    0.31716000  0.18284000  0.75000000  0.00000000
C        C    0.28298000  0.21702000  0.75000000  0.00000000
C        C    0.58289000  0.91711000  0.75000000  0.00000000
C        C    0.61769000  0.88231000  0.75000000  0.00000000
C        C    0.68284000  0.81716000  0.75000000  0.00000000
C        C    0.71702000  0.78298000  0.75000000  0.00000000
C        C    0.58289000  0.08289000  0.25000000  0.00000000
C        C    0.61769000  0.11769000  0.25000000  0.00000000
C        C    0.68284000  0.18284000  0.25000000  0.00000000
C        C    0.71702000  0.21702000  0.25000000  0.00000000
C        C    0.41711000  0.91711000  0.25000000  0.00000000
C        C    0.38231000  0.88231000  0.25000000  0.00000000
C        C    0.31716000  0.81716000  0.25000000  0.00000000
C        C    0.28298000  0.78298000  0.25000000  0.00000000
C        C    0.75000000  0.41711000  0.08289000  0.00000000
C        C    0.75000000  0.38231000  0.11769000  0.00000000
C        C    0.75000000  0.31716000  0.18284000  0.00000000
C        C    0.75000000  0.28298000  0.21702000  0.00000000
C        C    0.75000000  0.58289000  0.91711000  0.00000000
C        C    0.75000000  0.61769000  0.88231000  0.00000000
C        C    0.75000000  0.68284000  0.81716000  0.00000000
C        C    0.75000000  0.71702000  0.78298000  0.00000000
C        C    0.25000000  0.58289000  0.08289000  0.00000000
C        C    0.25000000  0.61769000  0.11769000  0.00000000
C        C    0.25000000  0.68284000  0.18284000  0.00000000
C        C    0.25000000  0.71702000  0.21702000  0.00000000
C        C    0.25000000  0.41711000  0.91711000  0.00000000
C        C    0.25000000  0.38231000  0.88231000  0.00000000
C        C    0.25000000  0.31716000  0.81716000  0.00000000
C        C    0.25000000  0.28298000  0.78298000  0.00000000
C        C    0.08289000  0.75000000  0.41711000  0.00000000
C        C    0.11769000  0.75000000  0.38231000  0.00000000
C        C    0.18284000  0.75000000  0.31716000  0.00000000
C        C    0.21702000  0.75000000  0.28298000  0.00000000
C        C    0.91711000  0.75000000  0.58289000  0.00000000
C        C    0.88231000  0.75000000  0.61769000  0.00000000
C        C    0.81716000  0.75000000  0.68284000  0.00000000
C        C    0.78298000  0.75000000  0.71702000  0.00000000
C        C    0.08289000  0.25000000  0.58289000  0.00000000
C        C    0.11769000  0.25000000  0.61769000  0.00000000
C        C    0.18284000  0.25000000  0.68284000  0.00000000
C        C    0.21702000  0.25000000  0.71702000  0.00000000
C        C    0.91711000  0.25000000  0.41711000  0.00000000
C        C    0.88231000  0.25000000  0.38231000  0.00000000
C        C    0.81716000  0.25000000  0.31716000  0.00000000
C        C    0.78298000  0.25000000  0.28298000  0.00000000
C        C    0.75000000  0.78211000  0.28211000  0.00000000
H        H    0.75000000  0.80380000  0.30380000  0.00000000
C        C    0.25000000  0.21789000  0.28211000  0.00000000
H        H    0.25000000  0.19620000  0.30380000  0.00000000
C        C    0.25000000  0.78211000  0.71789000  0.00000000
H        H    0.25000000  0.80380000  0.69620000  0.00000000
C        C    0.75000000  0.21789000  0.71789000  0.00000000
H        H    0.75000000  0.19620000  0.69620000  0.00000000
C        C    0.28211000  0.75000000  0.78211000  0.00000000
H        H    0.30380000  0.75000000  0.80380000  0.00000000
C        C    0.28211000  0.25000000  0.21789000  0.00000000
H        H    0.30380000  0.25000000  0.19620000  0.00000000
C        C    0.71789000  0.25000000  0.78211000  0.00000000
H        H    0.69620000  0.25000000  0.80380000  0.00000000
C        C    0.71789000  0.75000000  0.21789000  0.00000000
H        H    0.69620000  0.75000000  0.19620000  0.00000000
C        C    0.78211000  0.28211000  0.75000000  0.00000000
H        H    0.80380000  0.30380000  0.75000000  0.00000000
C        C    0.21789000  0.28211000  0.25000000  0.00000000
H        H    0.19620000  0.30380000  0.25000000  0.00000000
C        C    0.78211000  0.71789000  0.25000000  0.00000000
H        H    0.80380000  0.69620000  0.25000000  0.00000000
C        C    0.21789000  0.71789000  0.75000000  0.00000000
H        H    0.19620000  0.69620000  0.75000000  0.00000000
C        C    0.25000000  0.21789000  0.71789000  0.00000000
H        H    0.25000000  0.19620000  0.69620000  0.00000000
C        C    0.75000000  0.78211000  0.71789000  0.00000000
H        H    0.75000000  0.80380000  0.69620000  0.00000000
C        C    0.75000000  0.21789000  0.28211000  0.00000000
H        H    0.75000000  0.19620000  0.30380000  0.00000000
C        C    0.25000000  0.78211000  0.28211000  0.00000000
H        H    0.25000000  0.80380000  0.30380000  0.00000000
C        C    0.71789000  0.25000000  0.21789000  0.00000000
H        H    0.69620000  0.25000000  0.19620000  0.00000000
C        C    0.71789000  0.75000000  0.78211000  0.00000000
H        H    0.69620000  0.75000000  0.80380000  0.00000000
C        C    0.28211000  0.75000000  0.21789000  0.00000000
H        H    0.30380000  0.75000000  0.19620000  0.00000000
C        C    0.28211000  0.25000000  0.78211000  0.00000000
H        H    0.30380000  0.25000000  0.80380000  0.00000000
C        C    0.21789000  0.71789000  0.25000000  0.00000000
H        H    0.19620000  0.69620000  0.25000000  0.00000000
C        C    0.78211000  0.71789000  0.75000000  0.00000000
H        H    0.80380000  0.69620000  0.75000000  0.00000000
C        C    0.21789000  0.28211000  0.75000000  0.00000000
H        H    0.19620000  0.30380000  0.75000000  0.00000000
C        C    0.78211000  0.28211000  0.25000000  0.00000000
H        H    0.80380000  0.30380000  0.25000000  0.00000000
C        C    0.50000000  0.00000000  0.13094000  0.00000000
C        C    0.50000000  0.00000000  0.08235000  0.00000000
C        C    0.50000000  0.00000000  0.86906000  0.00000000
C        C    0.50000000  0.00000000  0.91765000  0.00000000
C        C    0.13094000  0.50000000  0.00000000  0.00000000
C        C    0.08235000  0.50000000  0.00000000  0.00000000
C        C    0.86906000  0.50000000  0.00000000  0.00000000
C        C    0.91765000  0.50000000  0.00000000  0.00000000
C        C    0.00000000  0.13094000  0.50000000  0.00000000
C        C    0.00000000  0.08235000  0.50000000  0.00000000
C        C    0.00000000  0.86906000  0.50000000  0.00000000
C        C    0.00000000  0.91765000  0.50000000  0.00000000
C        C    0.50000000  0.00000000  0.36906000  0.00000000
C        C    0.50000000  0.00000000  0.41765000  0.00000000
C        C    0.50000000  0.00000000  0.63094000  0.00000000
C        C    0.50000000  0.00000000  0.58235000  0.00000000
C        C    0.00000000  0.63094000  0.50000000  0.00000000
C        C    0.00000000  0.58235000  0.50000000  0.00000000
C        C    0.00000000  0.36906000  0.50000000  0.00000000
C        C    0.00000000  0.41765000  0.50000000  0.00000000
C        C    0.63094000  0.50000000  0.00000000  0.00000000
C        C    0.58235000  0.50000000  0.00000000  0.00000000
C        C    0.36906000  0.50000000  0.00000000  0.00000000
C        C    0.41765000  0.50000000  0.00000000  0.00000000
