data_PCN-68

_cell_length_a  41.82748743
_cell_length_b  41.82748743
_cell_length_c  41.82748743
_cell_angle_alpha  60.00000000
_cell_angle_beta  60.00000000
_cell_angle_gamma  60.00000000


_symmetry_space_group_name_Hall ' P 1'
_symmetry_space_group_name_H-M  'P 1'
_symmetry_Int_Tables_number     1

loop_
_atom_site_label
_atom_site_type_symbol
_atom_site_fract_x
_atom_site_fract_y
_atom_site_fract_z
_atom_site_charge
Cu       Cu   0.80926000  0.00000000  1.00000000  0.00000000
Cu       Cu   0.80926000  0.00000000  0.19074000  0.00000000
Cu       Cu   1.00000000  0.80926000  0.19074000  0.00000000
Cu       Cu   1.00000000  0.00000000  0.80926000  0.00000000
Cu       Cu   0.00000000  0.00000000  0.19074000  0.00000000
Cu       Cu   0.19074000  1.00000000  0.00000000  0.00000000
Cu       Cu   0.00000000  0.80926000  1.00000000  0.00000000
Cu       Cu   0.19074000  0.00000000  0.80926000  0.00000000
Cu       Cu   1.00000000  0.19074000  0.00000000  0.00000000
Cu       Cu   0.80926000  0.19074000  1.00000000  0.00000000
Cu       Cu   0.19074000  0.80926000  0.00000000  0.00000000
Cu       Cu   0.00000000  0.19074000  0.80926000  0.00000000
Cu       Cu   0.74600000  0.00000000  1.00000000  0.00000000
Cu       Cu   0.74600000  0.00000000  0.25400000  0.00000000
Cu       Cu   1.00000000  0.74600000  0.25400000  0.00000000
Cu       Cu   1.00000000  0.00000000  0.74600000  0.00000000
Cu       Cu   0.00000000  1.00000000  0.25400000  0.00000000
Cu       Cu   0.25400000  1.00000000  0.00000000  0.00000000
Cu       Cu   0.00000000  0.74600000  1.00000000  0.00000000
Cu       Cu   0.25400000  0.00000000  0.74600000  0.00000000
Cu       Cu   1.00000000  0.25400000  0.00000000  0.00000000
Cu       Cu   0.74600000  0.25400000  1.00000000  0.00000000
Cu       Cu   0.25400000  0.74600000  0.00000000  0.00000000
Cu       Cu   0.00000000  0.25400000  0.74600000  0.00000000
O        O    0.21887000  0.82753000  0.00893000  0.00000000
O        O    0.78113000  0.99107000  0.05533000  0.00000000
O        O    0.00893000  0.94467000  0.21887000  0.00000000
O        O    0.00893000  0.82753000  0.94467000  0.00000000
O        O    0.94467000  0.82753000  0.21887000  0.00000000
O        O    0.94467000  0.21887000  0.82753000  0.00000000
O        O    0.94467000  0.21887000  0.00893000  0.00000000
O        O    0.05533000  0.78113000  0.99107000  0.00000000
O        O    0.94467000  0.00893000  0.21887000  0.00000000
O        O    0.05533000  0.78113000  0.17247000  0.00000000
O        O    0.00893000  0.82753000  0.21887000  0.00000000
O        O    0.78113000  0.99107000  0.17247000  0.00000000
O        O    0.21887000  0.82753000  0.94467000  0.00000000
O        O    0.94467000  0.00893000  0.82753000  0.00000000
O        O    0.82753000  0.94467000  0.00893000  0.00000000
O        O    0.82753000  0.94467000  0.21887000  0.00000000
O        O    0.82753000  0.00893000  0.94467000  0.00000000
O        O    0.99107000  0.05533000  0.78113000  0.00000000
O        O    0.05533000  0.99107000  0.78113000  0.00000000
O        O    0.99107000  0.17247000  0.78113000  0.00000000
O        O    0.00893000  0.94467000  0.82753000  0.00000000
O        O    0.78113000  0.17247000  0.05533000  0.00000000
O        O    0.78113000  0.05533000  0.17247000  0.00000000
O        O    0.00893000  0.21887000  0.94467000  0.00000000
O        O    0.21887000  0.00893000  0.82753000  0.00000000
O        O    0.82753000  0.21887000  0.00893000  0.00000000
O        O    0.82753000  0.21887000  0.94467000  0.00000000
O        O    0.99107000  0.78113000  0.17247000  0.00000000
O        O    0.05533000  0.17247000  0.99107000  0.00000000
O        O    0.17247000  0.99107000  0.05533000  0.00000000
O        O    0.99107000  0.17247000  0.05533000  0.00000000
O        O    0.94467000  0.82753000  0.00893000  0.00000000
O        O    0.17247000  0.05533000  0.99107000  0.00000000
O        O    0.21887000  0.00893000  0.94467000  0.00000000
O        O    0.17247000  0.05533000  0.78113000  0.00000000
O        O    0.78113000  0.17247000  0.99107000  0.00000000
O        O    0.21887000  0.94467000  0.82753000  0.00000000
O        O    0.82753000  0.00893000  0.21887000  0.00000000
O        O    0.17247000  0.99107000  0.78113000  0.00000000
O        O    0.78113000  0.05533000  0.99107000  0.00000000
O        O    0.99107000  0.78113000  0.05533000  0.00000000
O        O    0.21887000  0.94467000  0.00893000  0.00000000
O        O    0.05533000  0.17247000  0.78113000  0.00000000
O        O    0.17247000  0.78113000  0.99107000  0.00000000
O        O    0.00893000  0.21887000  0.82753000  0.00000000
O        O    0.99107000  0.05533000  0.17247000  0.00000000
O        O    0.05533000  0.99107000  0.17247000  0.00000000
O        O    0.17247000  0.78113000  0.05533000  0.00000000
O        O    0.27180000  0.77400000  0.01000000  0.00000000
O        O    0.72820000  0.99000000  0.05580000  0.00000000
O        O    0.01000000  0.94420000  0.27180000  0.00000000
O        O    0.01000000  0.77400000  0.94420000  0.00000000
O        O    0.94420000  0.77400000  0.27180000  0.00000000
O        O    0.94420000  0.27180000  0.77400000  0.00000000
O        O    0.94420000  0.27180000  0.01000000  0.00000000
O        O    0.05580000  0.72820000  0.99000000  0.00000000
O        O    0.94420000  0.01000000  0.27180000  0.00000000
O        O    0.05580000  0.72820000  0.22600000  0.00000000
O        O    0.01000000  0.77400000  0.27180000  0.00000000
O        O    0.72820000  0.99000000  0.22600000  0.00000000
O        O    0.27180000  0.77400000  0.94420000  0.00000000
O        O    0.94420000  0.01000000  0.77400000  0.00000000
O        O    0.77400000  0.94420000  0.01000000  0.00000000
O        O    0.77400000  0.94420000  0.27180000  0.00000000
O        O    0.77400000  0.01000000  0.94420000  0.00000000
O        O    0.99000000  0.05580000  0.72820000  0.00000000
O        O    0.05580000  0.99000000  0.72820000  0.00000000
O        O    0.99000000  0.22600000  0.72820000  0.00000000
O        O    0.01000000  0.94420000  0.77400000  0.00000000
O        O    0.72820000  0.22600000  0.05580000  0.00000000
O        O    0.72820000  0.05580000  0.22600000  0.00000000
O        O    0.01000000  0.27180000  0.94420000  0.00000000
O        O    0.27180000  0.01000000  0.77400000  0.00000000
O        O    0.77400000  0.27180000  0.01000000  0.00000000
O        O    0.77400000  0.27180000  0.94420000  0.00000000
O        O    0.99000000  0.72820000  0.22600000  0.00000000
O        O    0.05580000  0.22600000  0.99000000  0.00000000
O        O    0.22600000  0.99000000  0.05580000  0.00000000
O        O    0.99000000  0.22600000  0.05580000  0.00000000
O        O    0.94420000  0.77400000  0.01000000  0.00000000
O        O    0.22600000  0.05580000  0.99000000  0.00000000
O        O    0.27180000  0.01000000  0.94420000  0.00000000
O        O    0.22600000  0.05580000  0.72820000  0.00000000
O        O    0.72820000  0.22600000  0.99000000  0.00000000
O        O    0.27180000  0.94420000  0.77400000  0.00000000
O        O    0.77400000  0.01000000  0.27180000  0.00000000
O        O    0.22600000  0.99000000  0.72820000  0.00000000
O        O    0.72820000  0.05580000  0.99000000  0.00000000
O        O    0.99000000  0.72820000  0.05580000  0.00000000
O        O    0.27180000  0.94420000  0.01000000  0.00000000
O        O    0.05580000  0.22600000  0.72820000  0.00000000
O        O    0.22600000  0.72820000  0.99000000  0.00000000
O        O    0.01000000  0.27180000  0.77400000  0.00000000
O        O    0.99000000  0.05580000  0.22600000  0.00000000
O        O    0.05580000  0.99000000  0.22600000  0.00000000
O        O    0.22600000  0.72820000  0.05580000  0.00000000
C        C    0.25230000  0.80870000  0.01110000  0.00000000
C        C    0.74770000  0.98890000  0.07210000  0.00000000
C        C    0.01110000  0.92790000  0.25230000  0.00000000
C        C    0.01110000  0.80870000  0.92790000  0.00000000
C        C    0.92790000  0.80870000  0.25230000  0.00000000
C        C    0.92790000  0.25230000  0.80870000  0.00000000
C        C    0.92790000  0.25230000  0.01110000  0.00000000
C        C    0.07210000  0.74770000  0.98890000  0.00000000
C        C    0.92790000  0.01110000  0.25230000  0.00000000
C        C    0.07210000  0.74770000  0.19130000  0.00000000
C        C    0.01110000  0.80870000  0.25230000  0.00000000
C        C    0.74770000  0.98890000  0.19130000  0.00000000
C        C    0.25230000  0.80870000  0.92790000  0.00000000
C        C    0.92790000  0.01110000  0.80870000  0.00000000
C        C    0.80870000  0.92790000  0.01110000  0.00000000
C        C    0.80870000  0.92790000  0.25230000  0.00000000
C        C    0.80870000  0.01110000  0.92790000  0.00000000
C        C    0.98890000  0.07210000  0.74770000  0.00000000
C        C    0.07210000  0.98890000  0.74770000  0.00000000
C        C    0.98890000  0.19130000  0.74770000  0.00000000
C        C    0.01110000  0.92790000  0.80870000  0.00000000
C        C    0.74770000  0.19130000  0.07210000  0.00000000
C        C    0.74770000  0.07210000  0.19130000  0.00000000
C        C    0.01110000  0.25230000  0.92790000  0.00000000
C        C    0.25230000  0.01110000  0.80870000  0.00000000
C        C    0.80870000  0.25230000  0.01110000  0.00000000
C        C    0.80870000  0.25230000  0.92790000  0.00000000
C        C    0.98890000  0.74770000  0.19130000  0.00000000
C        C    0.07210000  0.19130000  0.98890000  0.00000000
C        C    0.19130000  0.98890000  0.07210000  0.00000000
C        C    0.98890000  0.19130000  0.07210000  0.00000000
C        C    0.92790000  0.80870000  0.01110000  0.00000000
C        C    0.19130000  0.07210000  0.98890000  0.00000000
C        C    0.25230000  0.01110000  0.92790000  0.00000000
C        C    0.19130000  0.07210000  0.74770000  0.00000000
C        C    0.74770000  0.19130000  0.98890000  0.00000000
C        C    0.25230000  0.92790000  0.80870000  0.00000000
C        C    0.80870000  0.01110000  0.25230000  0.00000000
C        C    0.19130000  0.98890000  0.74770000  0.00000000
C        C    0.74770000  0.07210000  0.98890000  0.00000000
C        C    0.98890000  0.74770000  0.07210000  0.00000000
C        C    0.25230000  0.92790000  0.01110000  0.00000000
C        C    0.07210000  0.19130000  0.74770000  0.00000000
C        C    0.19130000  0.74770000  0.98890000  0.00000000
C        C    0.01110000  0.25230000  0.80870000  0.00000000
C        C    0.98890000  0.07210000  0.19130000  0.00000000
C        C    0.07210000  0.98890000  0.19130000  0.00000000
C        C    0.19130000  0.74770000  0.07210000  0.00000000
C        C    0.01260000  0.86680000  0.25380000  0.00000000
C        C    0.98740000  0.74620000  0.13320000  0.00000000
C        C    0.86680000  0.86680000  0.01260000  0.00000000
C        C    0.74620000  0.13320000  0.98740000  0.00000000
C        C    0.25380000  0.86680000  0.86680000  0.00000000
C        C    0.01260000  0.25380000  0.86680000  0.00000000
C        C    0.13320000  0.98740000  0.74620000  0.00000000
C        C    0.01260000  0.86680000  0.86680000  0.00000000
C        C    0.86680000  0.86680000  0.25380000  0.00000000
C        C    0.74620000  0.98740000  0.13320000  0.00000000
C        C    0.86680000  0.01260000  0.86680000  0.00000000
C        C    0.86680000  0.01260000  0.25380000  0.00000000
C        C    0.13320000  0.13320000  0.98740000  0.00000000
C        C    0.98740000  0.13320000  0.74620000  0.00000000
C        C    0.74620000  0.13320000  0.13320000  0.00000000
C        C    0.13320000  0.74620000  0.13320000  0.00000000
C        C    0.25380000  0.01260000  0.86680000  0.00000000
C        C    0.13320000  0.98740000  0.13320000  0.00000000
C        C    0.98740000  0.13320000  0.13320000  0.00000000
C        C    0.13320000  0.13320000  0.74620000  0.00000000
C        C    0.86680000  0.25380000  0.86680000  0.00000000
C        C    0.25380000  0.86680000  0.01260000  0.00000000
C        C    0.86680000  0.25380000  0.01260000  0.00000000
C        C    0.13320000  0.74620000  0.98740000  0.00000000
H        H    0.00870000  0.88110000  0.22910000  0.00000000
H        H    0.99130000  0.77090000  0.11890000  0.00000000
H        H    0.88110000  0.88110000  0.00870000  0.00000000
H        H    0.77090000  0.11890000  0.99130000  0.00000000
H        H    0.22910000  0.88110000  0.88110000  0.00000000
H        H    0.00870000  0.22910000  0.88110000  0.00000000
H        H    0.11890000  0.99130000  0.77090000  0.00000000
H        H    0.00870000  0.88110000  0.88110000  0.00000000
H        H    0.88110000  0.88110000  0.22910000  0.00000000
H        H    0.77090000  0.99130000  0.11890000  0.00000000
H        H    0.88110000  0.00870000  0.88110000  0.00000000
H        H    0.88110000  0.00870000  0.22910000  0.00000000
H        H    0.11890000  0.11890000  0.99130000  0.00000000
H        H    0.99130000  0.11890000  0.77090000  0.00000000
H        H    0.77090000  0.11890000  0.11890000  0.00000000
H        H    0.11890000  0.77090000  0.11890000  0.00000000
H        H    0.22910000  0.00870000  0.88110000  0.00000000
H        H    0.11890000  0.99130000  0.11890000  0.00000000
H        H    0.99130000  0.11890000  0.11890000  0.00000000
H        H    0.11890000  0.11890000  0.77090000  0.00000000
H        H    0.88110000  0.22910000  0.88110000  0.00000000
H        H    0.22910000  0.88110000  0.00870000  0.00000000
H        H    0.88110000  0.22910000  0.00870000  0.00000000
H        H    0.11890000  0.77090000  0.99130000  0.00000000
C        C    0.27095000  0.82817000  0.01525000  0.00000000
C        C    0.72905000  0.98475000  0.11437000  0.00000000
C        C    0.01525000  0.88563000  0.27095000  0.00000000
C        C    0.01525000  0.82817000  0.88563000  0.00000000
C        C    0.88563000  0.82817000  0.27095000  0.00000000
C        C    0.88563000  0.27095000  0.82817000  0.00000000
C        C    0.88563000  0.27095000  0.01525000  0.00000000
C        C    0.11437000  0.72905000  0.98475000  0.00000000
C        C    0.88563000  0.01525000  0.27095000  0.00000000
C        C    0.11437000  0.72905000  0.17183000  0.00000000
C        C    0.01525000  0.82817000  0.27095000  0.00000000
C        C    0.72905000  0.98475000  0.17183000  0.00000000
C        C    0.27095000  0.82817000  0.88563000  0.00000000
C        C    0.88563000  0.01525000  0.82817000  0.00000000
C        C    0.82817000  0.88563000  0.01525000  0.00000000
C        C    0.82817000  0.88563000  0.27095000  0.00000000
C        C    0.82817000  0.01525000  0.88563000  0.00000000
C        C    0.98475000  0.11437000  0.72905000  0.00000000
C        C    0.11437000  0.98475000  0.72905000  0.00000000
C        C    0.98475000  0.17183000  0.72905000  0.00000000
C        C    0.01525000  0.88563000  0.82817000  0.00000000
C        C    0.72905000  0.17183000  0.11437000  0.00000000
C        C    0.72905000  0.11437000  0.17183000  0.00000000
C        C    0.01525000  0.27095000  0.88563000  0.00000000
C        C    0.27095000  0.01525000  0.82817000  0.00000000
C        C    0.82817000  0.27095000  0.01525000  0.00000000
C        C    0.82817000  0.27095000  0.88563000  0.00000000
C        C    0.98475000  0.72905000  0.17183000  0.00000000
C        C    0.11437000  0.17183000  0.98475000  0.00000000
C        C    0.17183000  0.98475000  0.11437000  0.00000000
C        C    0.98475000  0.17183000  0.11437000  0.00000000
C        C    0.88563000  0.82817000  0.01525000  0.00000000
C        C    0.17183000  0.11437000  0.98475000  0.00000000
C        C    0.27095000  0.01525000  0.88563000  0.00000000
C        C    0.17183000  0.11437000  0.72905000  0.00000000
C        C    0.72905000  0.17183000  0.98475000  0.00000000
C        C    0.27095000  0.88563000  0.82817000  0.00000000
C        C    0.82817000  0.01525000  0.27095000  0.00000000
C        C    0.17183000  0.98475000  0.72905000  0.00000000
C        C    0.72905000  0.11437000  0.98475000  0.00000000
C        C    0.98475000  0.72905000  0.11437000  0.00000000
C        C    0.27095000  0.88563000  0.01525000  0.00000000
C        C    0.11437000  0.17183000  0.72905000  0.00000000
C        C    0.17183000  0.72905000  0.98475000  0.00000000
C        C    0.01525000  0.27095000  0.82817000  0.00000000
C        C    0.98475000  0.11437000  0.17183000  0.00000000
C        C    0.11437000  0.98475000  0.17183000  0.00000000
C        C    0.17183000  0.72905000  0.11437000  0.00000000
C        C    0.30675000  0.80683000  0.02205000  0.00000000
C        C    0.69325000  0.97795000  0.13563000  0.00000000
C        C    0.02205000  0.86437000  0.30675000  0.00000000
C        C    0.02205000  0.80683000  0.86437000  0.00000000
C        C    0.86437000  0.80683000  0.30675000  0.00000000
C        C    0.86437000  0.30675000  0.80683000  0.00000000
C        C    0.86437000  0.30675000  0.02205000  0.00000000
C        C    0.13563000  0.69325000  0.97795000  0.00000000
C        C    0.86437000  0.02205000  0.30675000  0.00000000
C        C    0.13563000  0.69325000  0.19317000  0.00000000
C        C    0.02205000  0.80683000  0.30675000  0.00000000
C        C    0.69325000  0.97795000  0.19317000  0.00000000
C        C    0.30675000  0.80683000  0.86437000  0.00000000
C        C    0.86437000  0.02205000  0.80683000  0.00000000
C        C    0.80683000  0.86437000  0.02205000  0.00000000
C        C    0.80683000  0.86437000  0.30675000  0.00000000
C        C    0.80683000  0.02205000  0.86437000  0.00000000
C        C    0.97795000  0.13563000  0.69325000  0.00000000
C        C    0.13563000  0.97795000  0.69325000  0.00000000
C        C    0.97795000  0.19317000  0.69325000  0.00000000
C        C    0.02205000  0.86437000  0.80683000  0.00000000
C        C    0.69325000  0.19317000  0.13563000  0.00000000
C        C    0.69325000  0.13563000  0.19317000  0.00000000
C        C    0.02205000  0.30675000  0.86437000  0.00000000
C        C    0.30675000  0.02205000  0.80683000  0.00000000
C        C    0.80683000  0.30675000  0.02205000  0.00000000
C        C    0.80683000  0.30675000  0.86437000  0.00000000
C        C    0.97795000  0.69325000  0.19317000  0.00000000
C        C    0.13563000  0.19317000  0.97795000  0.00000000
C        C    0.19317000  0.97795000  0.13563000  0.00000000
C        C    0.97795000  0.19317000  0.13563000  0.00000000
C        C    0.86437000  0.80683000  0.02205000  0.00000000
C        C    0.19317000  0.13563000  0.97795000  0.00000000
C        C    0.30675000  0.02205000  0.86437000  0.00000000
C        C    0.19317000  0.13563000  0.69325000  0.00000000
C        C    0.69325000  0.19317000  0.97795000  0.00000000
C        C    0.30675000  0.86437000  0.80683000  0.00000000
C        C    0.80683000  0.02205000  0.30675000  0.00000000
C        C    0.19317000  0.97795000  0.69325000  0.00000000
C        C    0.69325000  0.13563000  0.97795000  0.00000000
C        C    0.97795000  0.69325000  0.13563000  0.00000000
C        C    0.30675000  0.86437000  0.02205000  0.00000000
C        C    0.13563000  0.19317000  0.69325000  0.00000000
C        C    0.19317000  0.69325000  0.97795000  0.00000000
C        C    0.02205000  0.30675000  0.80683000  0.00000000
C        C    0.97795000  0.13563000  0.19317000  0.00000000
C        C    0.13563000  0.97795000  0.19317000  0.00000000
C        C    0.19317000  0.69325000  0.13563000  0.00000000
H        H    0.31910000  0.78010000  0.02390000  0.00000000
H        H    0.68090000  0.97610000  0.12310000  0.00000000
H        H    0.02390000  0.87690000  0.31910000  0.00000000
H        H    0.02390000  0.78010000  0.87690000  0.00000000
H        H    0.87690000  0.78010000  0.31910000  0.00000000
H        H    0.87690000  0.31910000  0.78010000  0.00000000
H        H    0.87690000  0.31910000  0.02390000  0.00000000
H        H    0.12310000  0.68090000  0.97610000  0.00000000
H        H    0.87690000  0.02390000  0.31910000  0.00000000
H        H    0.12310000  0.68090000  0.21990000  0.00000000
H        H    0.02390000  0.78010000  0.31910000  0.00000000
H        H    0.68090000  0.97610000  0.21990000  0.00000000
H        H    0.31910000  0.78010000  0.87690000  0.00000000
H        H    0.87690000  0.02390000  0.78010000  0.00000000
H        H    0.78010000  0.87690000  0.02390000  0.00000000
H        H    0.78010000  0.87690000  0.31910000  0.00000000
H        H    0.78010000  0.02390000  0.87690000  0.00000000
H        H    0.97610000  0.12310000  0.68090000  0.00000000
H        H    0.12310000  0.97610000  0.68090000  0.00000000
H        H    0.97610000  0.21990000  0.68090000  0.00000000
H        H    0.02390000  0.87690000  0.78010000  0.00000000
H        H    0.68090000  0.21990000  0.12310000  0.00000000
H        H    0.68090000  0.12310000  0.21990000  0.00000000
H        H    0.02390000  0.31910000  0.87690000  0.00000000
H        H    0.31910000  0.02390000  0.78010000  0.00000000
H        H    0.78010000  0.31910000  0.02390000  0.00000000
H        H    0.78010000  0.31910000  0.87690000  0.00000000
H        H    0.97610000  0.68090000  0.21990000  0.00000000
H        H    0.12310000  0.21990000  0.97610000  0.00000000
H        H    0.21990000  0.97610000  0.12310000  0.00000000
H        H    0.97610000  0.21990000  0.12310000  0.00000000
H        H    0.87690000  0.78010000  0.02390000  0.00000000
H        H    0.21990000  0.12310000  0.97610000  0.00000000
H        H    0.31910000  0.02390000  0.87690000  0.00000000
H        H    0.21990000  0.12310000  0.68090000  0.00000000
H        H    0.68090000  0.21990000  0.97610000  0.00000000
H        H    0.31910000  0.87690000  0.78010000  0.00000000
H        H    0.78010000  0.02390000  0.31910000  0.00000000
H        H    0.21990000  0.97610000  0.68090000  0.00000000
H        H    0.68090000  0.12310000  0.97610000  0.00000000
H        H    0.97610000  0.68090000  0.12310000  0.00000000
H        H    0.31910000  0.87690000  0.02390000  0.00000000
H        H    0.12310000  0.21990000  0.68090000  0.00000000
H        H    0.21990000  0.68090000  0.97610000  0.00000000
H        H    0.02390000  0.31910000  0.78010000  0.00000000
H        H    0.97610000  0.12310000  0.21990000  0.00000000
H        H    0.12310000  0.97610000  0.21990000  0.00000000
H        H    0.21990000  0.68090000  0.12310000  0.00000000
C        C    0.02598000  0.82490000  0.32422000  0.00000000
C        C    0.97402000  0.67578000  0.17510000  0.00000000
C        C    0.82490000  0.82490000  0.02598000  0.00000000
C        C    0.67578000  0.17510000  0.97402000  0.00000000
C        C    0.32422000  0.82490000  0.82490000  0.00000000
C        C    0.02598000  0.32422000  0.82490000  0.00000000
C        C    0.17510000  0.97402000  0.67578000  0.00000000
C        C    0.02598000  0.82490000  0.82490000  0.00000000
C        C    0.82490000  0.82490000  0.32422000  0.00000000
C        C    0.67578000  0.97402000  0.17510000  0.00000000
C        C    0.82490000  0.02598000  0.82490000  0.00000000
C        C    0.82490000  0.02598000  0.32422000  0.00000000
C        C    0.17510000  0.17510000  0.97402000  0.00000000
C        C    0.97402000  0.17510000  0.67578000  0.00000000
C        C    0.67578000  0.17510000  0.17510000  0.00000000
C        C    0.17510000  0.67578000  0.17510000  0.00000000
C        C    0.32422000  0.02598000  0.82490000  0.00000000
C        C    0.17510000  0.97402000  0.17510000  0.00000000
C        C    0.97402000  0.17510000  0.17510000  0.00000000
C        C    0.17510000  0.17510000  0.67578000  0.00000000
C        C    0.82490000  0.32422000  0.82490000  0.00000000
C        C    0.32422000  0.82490000  0.02598000  0.00000000
C        C    0.82490000  0.32422000  0.02598000  0.00000000
C        C    0.17510000  0.67578000  0.97402000  0.00000000
C        C    0.03290000  0.80310000  0.36090000  0.00000000
C        C    0.96710000  0.63910000  0.19690000  0.00000000
C        C    0.80310000  0.80310000  0.03290000  0.00000000
C        C    0.63910000  0.19690000  0.96710000  0.00000000
C        C    0.36090000  0.80310000  0.80310000  0.00000000
C        C    0.03290000  0.36090000  0.80310000  0.00000000
C        C    0.19690000  0.96710000  0.63910000  0.00000000
C        C    0.03290000  0.80310000  0.80310000  0.00000000
C        C    0.80310000  0.80310000  0.36090000  0.00000000
C        C    0.63910000  0.96710000  0.19690000  0.00000000
C        C    0.80310000  0.03290000  0.80310000  0.00000000
C        C    0.80310000  0.03290000  0.36090000  0.00000000
C        C    0.19690000  0.19690000  0.96710000  0.00000000
C        C    0.96710000  0.19690000  0.63910000  0.00000000
C        C    0.63910000  0.19690000  0.19690000  0.00000000
C        C    0.19690000  0.63910000  0.19690000  0.00000000
C        C    0.36090000  0.03290000  0.80310000  0.00000000
C        C    0.19690000  0.96710000  0.19690000  0.00000000
C        C    0.96710000  0.19690000  0.19690000  0.00000000
C        C    0.19690000  0.19690000  0.63910000  0.00000000
C        C    0.80310000  0.36090000  0.80310000  0.00000000
C        C    0.36090000  0.80310000  0.03290000  0.00000000
C        C    0.80310000  0.36090000  0.03290000  0.00000000
C        C    0.19690000  0.63910000  0.96710000  0.00000000
C        C    0.04070000  0.78510000  0.38910000  0.00000000
C        C    0.95930000  0.61090000  0.21490000  0.00000000
C        C    0.78510000  0.78510000  0.04070000  0.00000000
C        C    0.61090000  0.21490000  0.95930000  0.00000000
C        C    0.38910000  0.78510000  0.78510000  0.00000000
C        C    0.04070000  0.38910000  0.78510000  0.00000000
C        C    0.21490000  0.95930000  0.61090000  0.00000000
C        C    0.04070000  0.78510000  0.78510000  0.00000000
C        C    0.78510000  0.78510000  0.38910000  0.00000000
C        C    0.61090000  0.95930000  0.21490000  0.00000000
C        C    0.78510000  0.04070000  0.78510000  0.00000000
C        C    0.78510000  0.04070000  0.38910000  0.00000000
C        C    0.21490000  0.21490000  0.95930000  0.00000000
C        C    0.95930000  0.21490000  0.61090000  0.00000000
C        C    0.61090000  0.21490000  0.21490000  0.00000000
C        C    0.21490000  0.61090000  0.21490000  0.00000000
C        C    0.38910000  0.04070000  0.78510000  0.00000000
C        C    0.21490000  0.95930000  0.21490000  0.00000000
C        C    0.95930000  0.21490000  0.21490000  0.00000000
C        C    0.21490000  0.21490000  0.61090000  0.00000000
C        C    0.78510000  0.38910000  0.78510000  0.00000000
C        C    0.38910000  0.78510000  0.04070000  0.00000000
C        C    0.78510000  0.38910000  0.04070000  0.00000000
C        C    0.21490000  0.61090000  0.95930000  0.00000000
C        C    0.04750000  0.76350000  0.42550000  0.00000000
C        C    0.95250000  0.57450000  0.23650000  0.00000000
C        C    0.76350000  0.76350000  0.04750000  0.00000000
C        C    0.57450000  0.23650000  0.95250000  0.00000000
C        C    0.42550000  0.76350000  0.76350000  0.00000000
C        C    0.04750000  0.42550000  0.76350000  0.00000000
C        C    0.23650000  0.95250000  0.57450000  0.00000000
C        C    0.04750000  0.76350000  0.76350000  0.00000000
C        C    0.76350000  0.76350000  0.42550000  0.00000000
C        C    0.57450000  0.95250000  0.23650000  0.00000000
C        C    0.76350000  0.04750000  0.76350000  0.00000000
C        C    0.76350000  0.04750000  0.42550000  0.00000000
C        C    0.23650000  0.23650000  0.95250000  0.00000000
C        C    0.95250000  0.23650000  0.57450000  0.00000000
C        C    0.57450000  0.23650000  0.23650000  0.00000000
C        C    0.23650000  0.57450000  0.23650000  0.00000000
C        C    0.42550000  0.04750000  0.76350000  0.00000000
C        C    0.23650000  0.95250000  0.23650000  0.00000000
C        C    0.95250000  0.23650000  0.23650000  0.00000000
C        C    0.23650000  0.23650000  0.57450000  0.00000000
C        C    0.76350000  0.42550000  0.76350000  0.00000000
C        C    0.42550000  0.76350000  0.04750000  0.00000000
C        C    0.76350000  0.42550000  0.04750000  0.00000000
C        C    0.23650000  0.57450000  0.95250000  0.00000000
C        C    0.44340000  0.72420000  0.05080000  0.00000000
C        C    0.55660000  0.94920000  0.21840000  0.00000000
C        C    0.05080000  0.78160000  0.44340000  0.00000000
C        C    0.05080000  0.72420000  0.78160000  0.00000000
C        C    0.78160000  0.72420000  0.44340000  0.00000000
C        C    0.78160000  0.44340000  0.72420000  0.00000000
C        C    0.78160000  0.44340000  0.05080000  0.00000000
C        C    0.21840000  0.55660000  0.94920000  0.00000000
C        C    0.78160000  0.05080000  0.44340000  0.00000000
C        C    0.21840000  0.55660000  0.27580000  0.00000000
C        C    0.05080000  0.72420000  0.44340000  0.00000000
C        C    0.55660000  0.94920000  0.27580000  0.00000000
C        C    0.44340000  0.72420000  0.78160000  0.00000000
C        C    0.78160000  0.05080000  0.72420000  0.00000000
C        C    0.72420000  0.78160000  0.05080000  0.00000000
C        C    0.72420000  0.78160000  0.44340000  0.00000000
C        C    0.72420000  0.05080000  0.78160000  0.00000000
C        C    0.94920000  0.21840000  0.55660000  0.00000000
C        C    0.21840000  0.94920000  0.55660000  0.00000000
C        C    0.94920000  0.27580000  0.55660000  0.00000000
C        C    0.05080000  0.78160000  0.72420000  0.00000000
C        C    0.55660000  0.27580000  0.21840000  0.00000000
C        C    0.55660000  0.21840000  0.27580000  0.00000000
C        C    0.05080000  0.44340000  0.78160000  0.00000000
C        C    0.44340000  0.05080000  0.72420000  0.00000000
C        C    0.72420000  0.44340000  0.05080000  0.00000000
C        C    0.72420000  0.44340000  0.78160000  0.00000000
C        C    0.94920000  0.55660000  0.27580000  0.00000000
C        C    0.21840000  0.27580000  0.94920000  0.00000000
C        C    0.27580000  0.94920000  0.21840000  0.00000000
C        C    0.94920000  0.27580000  0.21840000  0.00000000
C        C    0.78160000  0.72420000  0.05080000  0.00000000
C        C    0.27580000  0.21840000  0.94920000  0.00000000
C        C    0.44340000  0.05080000  0.78160000  0.00000000
C        C    0.27580000  0.21840000  0.55660000  0.00000000
C        C    0.55660000  0.27580000  0.94920000  0.00000000
C        C    0.44340000  0.78160000  0.72420000  0.00000000
C        C    0.72420000  0.05080000  0.44340000  0.00000000
C        C    0.27580000  0.94920000  0.55660000  0.00000000
C        C    0.55660000  0.21840000  0.94920000  0.00000000
C        C    0.94920000  0.55660000  0.21840000  0.00000000
C        C    0.44340000  0.78160000  0.05080000  0.00000000
C        C    0.21840000  0.27580000  0.55660000  0.00000000
C        C    0.27580000  0.55660000  0.94920000  0.00000000
C        C    0.05080000  0.44340000  0.72420000  0.00000000
C        C    0.94920000  0.21840000  0.27580000  0.00000000
C        C    0.21840000  0.94920000  0.27580000  0.00000000
C        C    0.27580000  0.55660000  0.21840000  0.00000000
H        H    0.43130000  0.71170000  0.04850000  0.00000000
H        H    0.56870000  0.95150000  0.19150000  0.00000000
H        H    0.04850000  0.80850000  0.43130000  0.00000000
H        H    0.04850000  0.71170000  0.80850000  0.00000000
H        H    0.80850000  0.71170000  0.43130000  0.00000000
H        H    0.80850000  0.43130000  0.71170000  0.00000000
H        H    0.80850000  0.43130000  0.04850000  0.00000000
H        H    0.19150000  0.56870000  0.95150000  0.00000000
H        H    0.80850000  0.04850000  0.43130000  0.00000000
H        H    0.19150000  0.56870000  0.28830000  0.00000000
H        H    0.04850000  0.71170000  0.43130000  0.00000000
H        H    0.56870000  0.95150000  0.28830000  0.00000000
H        H    0.43130000  0.71170000  0.80850000  0.00000000
H        H    0.80850000  0.04850000  0.71170000  0.00000000
H        H    0.71170000  0.80850000  0.04850000  0.00000000
H        H    0.71170000  0.80850000  0.43130000  0.00000000
H        H    0.71170000  0.04850000  0.80850000  0.00000000
H        H    0.95150000  0.19150000  0.56870000  0.00000000
H        H    0.19150000  0.95150000  0.56870000  0.00000000
H        H    0.95150000  0.28830000  0.56870000  0.00000000
H        H    0.04850000  0.80850000  0.71170000  0.00000000
H        H    0.56870000  0.28830000  0.19150000  0.00000000
H        H    0.56870000  0.19150000  0.28830000  0.00000000
H        H    0.04850000  0.43130000  0.80850000  0.00000000
H        H    0.43130000  0.04850000  0.71170000  0.00000000
H        H    0.71170000  0.43130000  0.04850000  0.00000000
H        H    0.71170000  0.43130000  0.80850000  0.00000000
H        H    0.95150000  0.56870000  0.28830000  0.00000000
H        H    0.19150000  0.28830000  0.95150000  0.00000000
H        H    0.28830000  0.95150000  0.19150000  0.00000000
H        H    0.95150000  0.28830000  0.19150000  0.00000000
H        H    0.80850000  0.71170000  0.04850000  0.00000000
H        H    0.28830000  0.19150000  0.95150000  0.00000000
H        H    0.43130000  0.04850000  0.80850000  0.00000000
H        H    0.28830000  0.19150000  0.56870000  0.00000000
H        H    0.56870000  0.28830000  0.95150000  0.00000000
H        H    0.43130000  0.80850000  0.71170000  0.00000000
H        H    0.71170000  0.04850000  0.43130000  0.00000000
H        H    0.28830000  0.95150000  0.56870000  0.00000000
H        H    0.56870000  0.19150000  0.95150000  0.00000000
H        H    0.95150000  0.56870000  0.19150000  0.00000000
H        H    0.43130000  0.80850000  0.04850000  0.00000000
H        H    0.19150000  0.28830000  0.56870000  0.00000000
H        H    0.28830000  0.56870000  0.95150000  0.00000000
H        H    0.04850000  0.43130000  0.71170000  0.00000000
H        H    0.95150000  0.19150000  0.28830000  0.00000000
H        H    0.19150000  0.95150000  0.28830000  0.00000000
H        H    0.28830000  0.56870000  0.19150000  0.00000000
C        C    0.47910000  0.70310000  0.05730000  0.00000000
C        C    0.52090000  0.94270000  0.23950000  0.00000000
C        C    0.05730000  0.76050000  0.47910000  0.00000000
C        C    0.05730000  0.70310000  0.76050000  0.00000000
C        C    0.76050000  0.70310000  0.47910000  0.00000000
C        C    0.76050000  0.47910000  0.70310000  0.00000000
C        C    0.76050000  0.47910000  0.05730000  0.00000000
C        C    0.23950000  0.52090000  0.94270000  0.00000000
C        C    0.76050000  0.05730000  0.47910000  0.00000000
C        C    0.23950000  0.52090000  0.29690000  0.00000000
C        C    0.05730000  0.70310000  0.47910000  0.00000000
C        C    0.52090000  0.94270000  0.29690000  0.00000000
C        C    0.47910000  0.70310000  0.76050000  0.00000000
C        C    0.76050000  0.05730000  0.70310000  0.00000000
C        C    0.70310000  0.76050000  0.05730000  0.00000000
C        C    0.70310000  0.76050000  0.47910000  0.00000000
C        C    0.70310000  0.05730000  0.76050000  0.00000000
C        C    0.94270000  0.23950000  0.52090000  0.00000000
C        C    0.23950000  0.94270000  0.52090000  0.00000000
C        C    0.94270000  0.29690000  0.52090000  0.00000000
C        C    0.05730000  0.76050000  0.70310000  0.00000000
C        C    0.52090000  0.29690000  0.23950000  0.00000000
C        C    0.52090000  0.23950000  0.29690000  0.00000000
C        C    0.05730000  0.47910000  0.76050000  0.00000000
C        C    0.47910000  0.05730000  0.70310000  0.00000000
C        C    0.70310000  0.47910000  0.05730000  0.00000000
C        C    0.70310000  0.47910000  0.76050000  0.00000000
C        C    0.94270000  0.52090000  0.29690000  0.00000000
C        C    0.23950000  0.29690000  0.94270000  0.00000000
C        C    0.29690000  0.94270000  0.23950000  0.00000000
C        C    0.94270000  0.29690000  0.23950000  0.00000000
C        C    0.76050000  0.70310000  0.05730000  0.00000000
C        C    0.29690000  0.23950000  0.94270000  0.00000000
C        C    0.47910000  0.05730000  0.76050000  0.00000000
C        C    0.29690000  0.23950000  0.52090000  0.00000000
C        C    0.52090000  0.29690000  0.94270000  0.00000000
C        C    0.47910000  0.76050000  0.70310000  0.00000000
C        C    0.70310000  0.05730000  0.47910000  0.00000000
C        C    0.29690000  0.94270000  0.52090000  0.00000000
C        C    0.52090000  0.23950000  0.94270000  0.00000000
C        C    0.94270000  0.52090000  0.23950000  0.00000000
C        C    0.47910000  0.76050000  0.05730000  0.00000000
C        C    0.23950000  0.29690000  0.52090000  0.00000000
C        C    0.29690000  0.52090000  0.94270000  0.00000000
C        C    0.05730000  0.47910000  0.70310000  0.00000000
C        C    0.94270000  0.23950000  0.29690000  0.00000000
C        C    0.23950000  0.94270000  0.29690000  0.00000000
C        C    0.29690000  0.52090000  0.23950000  0.00000000
H        H    0.49120000  0.67620000  0.05960000  0.00000000
H        H    0.50880000  0.94040000  0.22700000  0.00000000
H        H    0.05960000  0.77300000  0.49120000  0.00000000
H        H    0.05960000  0.67620000  0.77300000  0.00000000
H        H    0.77300000  0.67620000  0.49120000  0.00000000
H        H    0.77300000  0.49120000  0.67620000  0.00000000
H        H    0.77300000  0.49120000  0.05960000  0.00000000
H        H    0.22700000  0.50880000  0.94040000  0.00000000
H        H    0.77300000  0.05960000  0.49120000  0.00000000
H        H    0.22700000  0.50880000  0.32380000  0.00000000
H        H    0.05960000  0.67620000  0.49120000  0.00000000
H        H    0.50880000  0.94040000  0.32380000  0.00000000
H        H    0.49120000  0.67620000  0.77300000  0.00000000
H        H    0.77300000  0.05960000  0.67620000  0.00000000
H        H    0.67620000  0.77300000  0.05960000  0.00000000
H        H    0.67620000  0.77300000  0.49120000  0.00000000
H        H    0.67620000  0.05960000  0.77300000  0.00000000
H        H    0.94040000  0.22700000  0.50880000  0.00000000
H        H    0.22700000  0.94040000  0.50880000  0.00000000
H        H    0.94040000  0.32380000  0.50880000  0.00000000
H        H    0.05960000  0.77300000  0.67620000  0.00000000
H        H    0.50880000  0.32380000  0.22700000  0.00000000
H        H    0.50880000  0.22700000  0.32380000  0.00000000
H        H    0.05960000  0.49120000  0.77300000  0.00000000
H        H    0.49120000  0.05960000  0.67620000  0.00000000
H        H    0.67620000  0.49120000  0.05960000  0.00000000
H        H    0.67620000  0.49120000  0.77300000  0.00000000
H        H    0.94040000  0.50880000  0.32380000  0.00000000
H        H    0.22700000  0.32380000  0.94040000  0.00000000
H        H    0.32380000  0.94040000  0.22700000  0.00000000
H        H    0.94040000  0.32380000  0.22700000  0.00000000
H        H    0.77300000  0.67620000  0.05960000  0.00000000
H        H    0.32380000  0.22700000  0.94040000  0.00000000
H        H    0.49120000  0.05960000  0.77300000  0.00000000
H        H    0.32380000  0.22700000  0.50880000  0.00000000
H        H    0.50880000  0.32380000  0.94040000  0.00000000
H        H    0.49120000  0.77300000  0.67620000  0.00000000
H        H    0.67620000  0.05960000  0.49120000  0.00000000
H        H    0.32380000  0.94040000  0.50880000  0.00000000
H        H    0.50880000  0.22700000  0.94040000  0.00000000
H        H    0.94040000  0.50880000  0.22700000  0.00000000
H        H    0.49120000  0.77300000  0.05960000  0.00000000
H        H    0.22700000  0.32380000  0.50880000  0.00000000
H        H    0.32380000  0.50880000  0.94040000  0.00000000
H        H    0.05960000  0.49120000  0.67620000  0.00000000
H        H    0.94040000  0.22700000  0.32380000  0.00000000
H        H    0.22700000  0.94040000  0.32380000  0.00000000
H        H    0.32380000  0.50880000  0.22700000  0.00000000
C        C    0.06070000  0.72110000  0.49710000  0.00000000
C        C    0.93930000  0.50290000  0.27890000  0.00000000
C        C    0.72110000  0.72110000  0.06070000  0.00000000
C        C    0.50290000  0.27890000  0.93930000  0.00000000
C        C    0.49710000  0.72110000  0.72110000  0.00000000
C        C    0.06070000  0.49710000  0.72110000  0.00000000
C        C    0.27890000  0.93930000  0.50290000  0.00000000
C        C    0.06070000  0.72110000  0.72110000  0.00000000
C        C    0.72110000  0.72110000  0.49710000  0.00000000
C        C    0.50290000  0.93930000  0.27890000  0.00000000
C        C    0.72110000  0.06070000  0.72110000  0.00000000
C        C    0.72110000  0.06070000  0.49710000  0.00000000
C        C    0.27890000  0.27890000  0.93930000  0.00000000
C        C    0.93930000  0.27890000  0.50290000  0.00000000
C        C    0.50290000  0.27890000  0.27890000  0.00000000
C        C    0.27890000  0.50290000  0.27890000  0.00000000
C        C    0.49710000  0.06070000  0.72110000  0.00000000
C        C    0.27890000  0.93930000  0.27890000  0.00000000
C        C    0.93930000  0.27890000  0.27890000  0.00000000
C        C    0.27890000  0.27890000  0.50290000  0.00000000
C        C    0.72110000  0.49710000  0.72110000  0.00000000
C        C    0.49710000  0.72110000  0.06070000  0.00000000
C        C    0.72110000  0.49710000  0.06070000  0.00000000
C        C    0.27890000  0.50290000  0.93930000  0.00000000
C        C    0.06750000  0.69930000  0.53390000  0.00000000
C        C    0.93250000  0.46610000  0.30070000  0.00000000
C        C    0.69930000  0.69930000  0.06750000  0.00000000
C        C    0.46610000  0.30070000  0.93250000  0.00000000
C        C    0.53390000  0.69930000  0.69930000  0.00000000
C        C    0.06750000  0.53390000  0.69930000  0.00000000
C        C    0.30070000  0.93250000  0.46610000  0.00000000
C        C    0.06750000  0.69930000  0.69930000  0.00000000
C        C    0.69930000  0.69930000  0.53390000  0.00000000
C        C    0.46610000  0.93250000  0.30070000  0.00000000
C        C    0.69930000  0.06750000  0.69930000  0.00000000
C        C    0.69930000  0.06750000  0.53390000  0.00000000
C        C    0.30070000  0.30070000  0.93250000  0.00000000
C        C    0.93250000  0.30070000  0.46610000  0.00000000
C        C    0.46610000  0.30070000  0.30070000  0.00000000
C        C    0.30070000  0.46610000  0.30070000  0.00000000
C        C    0.53390000  0.06750000  0.69930000  0.00000000
C        C    0.30070000  0.93250000  0.30070000  0.00000000
C        C    0.93250000  0.30070000  0.30070000  0.00000000
C        C    0.30070000  0.30070000  0.46610000  0.00000000
C        C    0.69930000  0.53390000  0.69930000  0.00000000
C        C    0.53390000  0.69930000  0.06750000  0.00000000
C        C    0.69930000  0.53390000  0.06750000  0.00000000
C        C    0.30070000  0.46610000  0.93250000  0.00000000
C        C    0.07320000  0.68120000  0.56440000  0.00000000
C        C    0.92680000  0.43560000  0.31880000  0.00000000
C        C    0.68120000  0.68120000  0.07320000  0.00000000
C        C    0.43560000  0.31880000  0.92680000  0.00000000
C        C    0.56440000  0.68120000  0.68120000  0.00000000
C        C    0.07320000  0.56440000  0.68120000  0.00000000
C        C    0.31880000  0.92680000  0.43560000  0.00000000
C        C    0.07320000  0.68120000  0.68120000  0.00000000
C        C    0.68120000  0.68120000  0.56440000  0.00000000
C        C    0.43560000  0.92680000  0.31880000  0.00000000
C        C    0.68120000  0.07320000  0.68120000  0.00000000
C        C    0.68120000  0.07320000  0.56440000  0.00000000
C        C    0.31880000  0.31880000  0.92680000  0.00000000
C        C    0.92680000  0.31880000  0.43560000  0.00000000
C        C    0.43560000  0.31880000  0.31880000  0.00000000
C        C    0.31880000  0.43560000  0.31880000  0.00000000
C        C    0.56440000  0.07320000  0.68120000  0.00000000
C        C    0.31880000  0.92680000  0.31880000  0.00000000
C        C    0.92680000  0.31880000  0.31880000  0.00000000
C        C    0.31880000  0.31880000  0.43560000  0.00000000
C        C    0.68120000  0.56440000  0.68120000  0.00000000
C        C    0.56440000  0.68120000  0.07320000  0.00000000
C        C    0.68120000  0.56440000  0.07320000  0.00000000
C        C    0.31880000  0.43560000  0.92680000  0.00000000
C        C    0.92450000  0.32010000  0.37770000  0.00000000
C        C    0.67990000  0.62230000  0.07550000  0.00000000
C        C    0.37770000  0.37770000  0.92450000  0.00000000
C        C    0.32010000  0.37770000  0.37770000  0.00000000
C        C    0.62230000  0.62230000  0.07550000  0.00000000
C        C    0.32010000  0.37770000  0.92450000  0.00000000
C        C    0.67990000  0.62230000  0.62230000  0.00000000
C        C    0.92450000  0.37770000  0.37770000  0.00000000
C        C    0.37770000  0.37770000  0.32010000  0.00000000
C        C    0.37770000  0.92450000  0.37770000  0.00000000
C        C    0.62230000  0.62230000  0.67990000  0.00000000
C        C    0.07550000  0.67990000  0.62230000  0.00000000
C        C    0.92450000  0.37770000  0.32010000  0.00000000
C        C    0.37770000  0.92450000  0.32010000  0.00000000
C        C    0.62230000  0.07550000  0.67990000  0.00000000
C        C    0.32010000  0.92450000  0.37770000  0.00000000
C        C    0.62230000  0.67990000  0.62230000  0.00000000
C        C    0.37770000  0.32010000  0.37770000  0.00000000
C        C    0.62230000  0.07550000  0.62230000  0.00000000
C        C    0.67990000  0.07550000  0.62230000  0.00000000
C        C    0.07550000  0.62230000  0.67990000  0.00000000
C        C    0.07550000  0.62230000  0.62230000  0.00000000
C        C    0.62230000  0.67990000  0.07550000  0.00000000
C        C    0.37770000  0.32010000  0.92450000  0.00000000
H        H    0.92040000  0.29560000  0.39200000  0.00000000
H        H    0.70440000  0.60800000  0.07960000  0.00000000
H        H    0.39200000  0.39200000  0.92040000  0.00000000
H        H    0.29560000  0.39200000  0.39200000  0.00000000
H        H    0.60800000  0.60800000  0.07960000  0.00000000
H        H    0.29560000  0.39200000  0.92040000  0.00000000
H        H    0.70440000  0.60800000  0.60800000  0.00000000
H        H    0.92040000  0.39200000  0.39200000  0.00000000
H        H    0.39200000  0.39200000  0.29560000  0.00000000
H        H    0.39200000  0.92040000  0.39200000  0.00000000
H        H    0.60800000  0.60800000  0.70440000  0.00000000
H        H    0.07960000  0.70440000  0.60800000  0.00000000
H        H    0.92040000  0.39200000  0.29560000  0.00000000
H        H    0.39200000  0.92040000  0.29560000  0.00000000
H        H    0.60800000  0.07960000  0.70440000  0.00000000
H        H    0.29560000  0.92040000  0.39200000  0.00000000
H        H    0.60800000  0.70440000  0.60800000  0.00000000
H        H    0.39200000  0.29560000  0.39200000  0.00000000
H        H    0.60800000  0.07960000  0.60800000  0.00000000
H        H    0.70440000  0.07960000  0.60800000  0.00000000
H        H    0.07960000  0.60800000  0.70440000  0.00000000
H        H    0.07960000  0.60800000  0.60800000  0.00000000
H        H    0.60800000  0.70440000  0.07960000  0.00000000
H        H    0.39200000  0.29560000  0.92040000  0.00000000
C        C    0.07250000  0.66170000  0.60410000  0.00000000
C        C    0.92750000  0.39590000  0.33830000  0.00000000
C        C    0.66170000  0.66170000  0.07250000  0.00000000
C        C    0.39590000  0.33830000  0.92750000  0.00000000
C        C    0.60410000  0.66170000  0.66170000  0.00000000
C        C    0.07250000  0.60410000  0.66170000  0.00000000
C        C    0.33830000  0.92750000  0.39590000  0.00000000
C        C    0.07250000  0.66170000  0.66170000  0.00000000
C        C    0.66170000  0.66170000  0.60410000  0.00000000
C        C    0.39590000  0.92750000  0.33830000  0.00000000
C        C    0.66170000  0.07250000  0.66170000  0.00000000
C        C    0.66170000  0.07250000  0.60410000  0.00000000
C        C    0.33830000  0.33830000  0.92750000  0.00000000
C        C    0.92750000  0.33830000  0.39590000  0.00000000
C        C    0.39590000  0.33830000  0.33830000  0.00000000
C        C    0.33830000  0.39590000  0.33830000  0.00000000
C        C    0.60410000  0.07250000  0.66170000  0.00000000
C        C    0.33830000  0.92750000  0.33830000  0.00000000
C        C    0.92750000  0.33830000  0.33830000  0.00000000
C        C    0.33830000  0.33830000  0.39590000  0.00000000
C        C    0.66170000  0.60410000  0.66170000  0.00000000
C        C    0.60410000  0.66170000  0.07250000  0.00000000
C        C    0.66170000  0.60410000  0.07250000  0.00000000
C        C    0.33830000  0.39590000  0.92750000  0.00000000
