data_PCN-68

_cell_length_a  59.15300000
_cell_length_b  59.15300000
_cell_length_c  59.15300000
_cell_angle_alpha  90.00000000
_cell_angle_beta  90.00000000
_cell_angle_gamma  90.00000000


_symmetry_space_group_name_Hall ' P 1'
_symmetry_space_group_name_H-M  'P 1'
_symmetry_Int_Tables_number     1

loop_
_atom_site_label
_atom_site_type_symbol
_atom_site_fract_x
_atom_site_fract_y
_atom_site_fract_z
_atom_site_charge
Cu       Cu   0.00000000  0.40463000  0.40463000  0.00000000
Cu       Cu   0.40463000  0.09537000  0.50000000  0.00000000
Cu       Cu   0.09537000  0.00000000  0.90463000  0.00000000
Cu       Cu   0.09537000  0.90463000  0.00000000  0.00000000
Cu       Cu   0.90463000  0.50000000  0.59537000  0.00000000
Cu       Cu   0.90463000  0.59537000  0.50000000  0.00000000
Cu       Cu   0.59537000  0.09537000  0.50000000  0.00000000
Cu       Cu   0.00000000  0.09537000  0.09537000  0.00000000
Cu       Cu   0.40463000  0.90463000  0.50000000  0.00000000
Cu       Cu   0.50000000  0.90463000  0.40463000  0.00000000
Cu       Cu   0.59537000  0.59537000  0.00000000  0.00000000
Cu       Cu   0.09537000  0.50000000  0.40463000  0.00000000
Cu       Cu   0.09537000  0.40463000  0.50000000  0.00000000
Cu       Cu   0.09537000  0.59537000  0.50000000  0.00000000
Cu       Cu   0.00000000  0.90463000  0.90463000  0.00000000
Cu       Cu   0.40463000  0.00000000  0.59537000  0.00000000
Cu       Cu   0.09537000  0.50000000  0.59537000  0.00000000
Cu       Cu   0.59537000  0.00000000  0.59537000  0.00000000
Cu       Cu   0.50000000  0.09537000  0.59537000  0.00000000
Cu       Cu   0.40463000  0.40463000  0.00000000  0.00000000
Cu       Cu   0.59537000  0.00000000  0.40463000  0.00000000
Cu       Cu   0.59537000  0.50000000  0.90463000  0.00000000
Cu       Cu   0.40463000  0.50000000  0.90463000  0.00000000
Cu       Cu   0.40463000  0.00000000  0.40463000  0.00000000
Cu       Cu   0.00000000  0.09537000  0.90463000  0.00000000
Cu       Cu   0.90463000  0.09537000  0.00000000  0.00000000
Cu       Cu   0.50000000  0.09537000  0.40463000  0.00000000
Cu       Cu   0.40463000  0.59537000  0.00000000  0.00000000
Cu       Cu   0.90463000  0.00000000  0.09537000  0.00000000
Cu       Cu   0.50000000  0.40463000  0.90463000  0.00000000
Cu       Cu   0.59537000  0.40463000  0.00000000  0.00000000
Cu       Cu   0.00000000  0.90463000  0.09537000  0.00000000
Cu       Cu   0.50000000  0.59537000  0.90463000  0.00000000
Cu       Cu   0.90463000  0.40463000  0.50000000  0.00000000
Cu       Cu   0.59537000  0.50000000  0.09537000  0.00000000
Cu       Cu   0.90463000  0.00000000  0.90463000  0.00000000
Cu       Cu   0.59537000  0.90463000  0.50000000  0.00000000
Cu       Cu   0.50000000  0.90463000  0.59537000  0.00000000
Cu       Cu   0.00000000  0.40463000  0.59537000  0.00000000
Cu       Cu   0.09537000  0.00000000  0.09537000  0.00000000
Cu       Cu   0.00000000  0.59537000  0.40463000  0.00000000
Cu       Cu   0.00000000  0.59537000  0.59537000  0.00000000
Cu       Cu   0.40463000  0.50000000  0.09537000  0.00000000
Cu       Cu   0.09537000  0.09537000  0.00000000  0.00000000
Cu       Cu   0.50000000  0.40463000  0.09537000  0.00000000
Cu       Cu   0.90463000  0.50000000  0.40463000  0.00000000
Cu       Cu   0.50000000  0.59537000  0.09537000  0.00000000
Cu       Cu   0.90463000  0.90463000  0.00000000  0.00000000
Cu       Cu   0.00000000  0.37300000  0.37300000  0.00000000
Cu       Cu   0.37300000  0.12700000  0.50000000  0.00000000
Cu       Cu   0.12700000  0.00000000  0.87300000  0.00000000
Cu       Cu   0.12700000  0.87300000  0.00000000  0.00000000
Cu       Cu   0.87300000  0.50000000  0.62700000  0.00000000
Cu       Cu   0.87300000  0.62700000  0.50000000  0.00000000
Cu       Cu   0.62700000  0.12700000  0.50000000  0.00000000
Cu       Cu   0.00000000  0.12700000  0.12700000  0.00000000
Cu       Cu   0.37300000  0.87300000  0.50000000  0.00000000
Cu       Cu   0.50000000  0.87300000  0.37300000  0.00000000
Cu       Cu   0.62700000  0.62700000  0.00000000  0.00000000
Cu       Cu   0.12700000  0.50000000  0.37300000  0.00000000
Cu       Cu   0.12700000  0.37300000  0.50000000  0.00000000
Cu       Cu   0.12700000  0.62700000  0.50000000  0.00000000
Cu       Cu   0.00000000  0.87300000  0.87300000  0.00000000
Cu       Cu   0.37300000  0.00000000  0.62700000  0.00000000
Cu       Cu   0.12700000  0.50000000  0.62700000  0.00000000
Cu       Cu   0.62700000  0.00000000  0.62700000  0.00000000
Cu       Cu   0.50000000  0.12700000  0.62700000  0.00000000
Cu       Cu   0.37300000  0.37300000  0.00000000  0.00000000
Cu       Cu   0.62700000  0.00000000  0.37300000  0.00000000
Cu       Cu   0.62700000  0.50000000  0.87300000  0.00000000
Cu       Cu   0.37300000  0.50000000  0.87300000  0.00000000
Cu       Cu   0.37300000  0.00000000  0.37300000  0.00000000
Cu       Cu   0.00000000  0.12700000  0.87300000  0.00000000
Cu       Cu   0.87300000  0.12700000  0.00000000  0.00000000
Cu       Cu   0.50000000  0.12700000  0.37300000  0.00000000
Cu       Cu   0.37300000  0.62700000  0.00000000  0.00000000
Cu       Cu   0.87300000  0.00000000  0.12700000  0.00000000
Cu       Cu   0.50000000  0.37300000  0.87300000  0.00000000
Cu       Cu   0.62700000  0.37300000  0.00000000  0.00000000
Cu       Cu   0.00000000  0.87300000  0.12700000  0.00000000
Cu       Cu   0.50000000  0.62700000  0.87300000  0.00000000
Cu       Cu   0.87300000  0.37300000  0.50000000  0.00000000
Cu       Cu   0.62700000  0.50000000  0.12700000  0.00000000
Cu       Cu   0.87300000  0.00000000  0.87300000  0.00000000
Cu       Cu   0.62700000  0.87300000  0.50000000  0.00000000
Cu       Cu   0.50000000  0.87300000  0.62700000  0.00000000
Cu       Cu   0.00000000  0.37300000  0.62700000  0.00000000
Cu       Cu   0.12700000  0.00000000  0.12700000  0.00000000
Cu       Cu   0.00000000  0.62700000  0.37300000  0.00000000
Cu       Cu   0.00000000  0.62700000  0.62700000  0.00000000
Cu       Cu   0.37300000  0.50000000  0.12700000  0.00000000
Cu       Cu   0.12700000  0.12700000  0.00000000  0.00000000
Cu       Cu   0.50000000  0.37300000  0.12700000  0.00000000
Cu       Cu   0.87300000  0.50000000  0.37300000  0.00000000
Cu       Cu   0.50000000  0.62700000  0.12700000  0.00000000
Cu       Cu   0.87300000  0.87300000  0.00000000  0.00000000
O        O    0.88610000  0.52320000  0.58177000  0.00000000
O        O    0.47680000  0.08177000  0.38610000  0.00000000
O        O    0.61390000  0.52320000  0.91823000  0.00000000
O        O    0.08177000  0.11390000  0.97680000  0.00000000
O        O    0.97680000  0.41823000  0.38610000  0.00000000
O        O    0.91823000  0.97680000  0.88610000  0.00000000
O        O    0.91823000  0.11390000  0.02320000  0.00000000
O        O    0.08177000  0.88610000  0.97680000  0.00000000
O        O    0.97680000  0.91823000  0.88610000  0.00000000
O        O    0.97680000  0.58177000  0.38610000  0.00000000
O        O    0.61390000  0.41823000  0.02320000  0.00000000
O        O    0.08177000  0.52320000  0.61390000  0.00000000
O        O    0.08177000  0.02320000  0.88610000  0.00000000
O        O    0.97680000  0.61390000  0.41823000  0.00000000
O        O    0.38610000  0.91823000  0.47680000  0.00000000
O        O    0.61390000  0.97680000  0.58177000  0.00000000
O        O    0.47680000  0.08177000  0.61390000  0.00000000
O        O    0.47680000  0.88610000  0.41823000  0.00000000
O        O    0.08177000  0.47680000  0.61390000  0.00000000
O        O    0.88610000  0.47680000  0.58177000  0.00000000
O        O    0.47680000  0.91823000  0.38610000  0.00000000
O        O    0.38610000  0.08177000  0.47680000  0.00000000
O        O    0.88610000  0.58177000  0.47680000  0.00000000
O        O    0.47680000  0.58177000  0.88610000  0.00000000
O        O    0.41823000  0.97680000  0.61390000  0.00000000
O        O    0.88610000  0.02320000  0.08177000  0.00000000
O        O    0.11390000  0.58177000  0.47680000  0.00000000
O        O    0.11390000  0.58177000  0.52320000  0.00000000
O        O    0.58177000  0.11390000  0.52320000  0.00000000
O        O    0.52320000  0.61390000  0.91823000  0.00000000
O        O    0.52320000  0.88610000  0.58177000  0.00000000
O        O    0.38610000  0.08177000  0.52320000  0.00000000
O        O    0.11390000  0.02320000  0.91823000  0.00000000
O        O    0.08177000  0.52320000  0.38610000  0.00000000
O        O    0.88610000  0.47680000  0.41823000  0.00000000
O        O    0.61390000  0.08177000  0.52320000  0.00000000
O        O    0.97680000  0.91823000  0.11390000  0.00000000
O        O    0.41823000  0.47680000  0.88610000  0.00000000
O        O    0.52320000  0.88610000  0.41823000  0.00000000
O        O    0.58177000  0.47680000  0.11390000  0.00000000
O        O    0.97680000  0.11390000  0.91823000  0.00000000
O        O    0.08177000  0.97680000  0.11390000  0.00000000
O        O    0.41823000  0.02320000  0.38610000  0.00000000
O        O    0.02320000  0.38610000  0.58177000  0.00000000
O        O    0.58177000  0.02320000  0.61390000  0.00000000
O        O    0.91823000  0.38610000  0.52320000  0.00000000
O        O    0.91823000  0.47680000  0.38610000  0.00000000
O        O    0.91823000  0.52320000  0.38610000  0.00000000
O        O    0.41823000  0.88610000  0.52320000  0.00000000
O        O    0.58177000  0.11390000  0.47680000  0.00000000
O        O    0.88610000  0.41823000  0.47680000  0.00000000
O        O    0.97680000  0.11390000  0.08177000  0.00000000
O        O    0.02320000  0.41823000  0.38610000  0.00000000
O        O    0.38610000  0.02320000  0.58177000  0.00000000
O        O    0.58177000  0.61390000  0.02320000  0.00000000
O        O    0.47680000  0.41823000  0.11390000  0.00000000
O        O    0.47680000  0.61390000  0.08177000  0.00000000
O        O    0.91823000  0.47680000  0.61390000  0.00000000
O        O    0.58177000  0.52320000  0.11390000  0.00000000
O        O    0.02320000  0.41823000  0.61390000  0.00000000
O        O    0.08177000  0.61390000  0.52320000  0.00000000
O        O    0.52320000  0.11390000  0.58177000  0.00000000
O        O    0.41823000  0.11390000  0.52320000  0.00000000
O        O    0.11390000  0.47680000  0.41823000  0.00000000
O        O    0.41823000  0.88610000  0.47680000  0.00000000
O        O    0.47680000  0.11390000  0.58177000  0.00000000
O        O    0.02320000  0.38610000  0.41823000  0.00000000
O        O    0.11390000  0.97680000  0.08177000  0.00000000
O        O    0.97680000  0.38610000  0.41823000  0.00000000
O        O    0.08177000  0.88610000  0.02320000  0.00000000
O        O    0.97680000  0.58177000  0.61390000  0.00000000
O        O    0.41823000  0.11390000  0.47680000  0.00000000
O        O    0.47680000  0.91823000  0.61390000  0.00000000
O        O    0.08177000  0.38610000  0.47680000  0.00000000
O        O    0.58177000  0.02320000  0.38610000  0.00000000
O        O    0.08177000  0.97680000  0.88610000  0.00000000
O        O    0.47680000  0.58177000  0.11390000  0.00000000
O        O    0.11390000  0.08177000  0.97680000  0.00000000
O        O    0.88610000  0.97680000  0.08177000  0.00000000
O        O    0.11390000  0.41823000  0.52320000  0.00000000
O        O    0.97680000  0.61390000  0.58177000  0.00000000
O        O    0.61390000  0.02320000  0.41823000  0.00000000
O        O    0.47680000  0.61390000  0.91823000  0.00000000
O        O    0.61390000  0.91823000  0.52320000  0.00000000
O        O    0.52320000  0.41823000  0.88610000  0.00000000
O        O    0.08177000  0.02320000  0.11390000  0.00000000
O        O    0.47680000  0.38610000  0.08177000  0.00000000
O        O    0.91823000  0.88610000  0.97680000  0.00000000
O        O    0.47680000  0.38610000  0.91823000  0.00000000
O        O    0.02320000  0.61390000  0.58177000  0.00000000
O        O    0.97680000  0.08177000  0.88610000  0.00000000
O        O    0.58177000  0.38610000  0.02320000  0.00000000
O        O    0.11390000  0.91823000  0.02320000  0.00000000
O        O    0.41823000  0.61390000  0.02320000  0.00000000
O        O    0.91823000  0.61390000  0.47680000  0.00000000
O        O    0.41823000  0.02320000  0.61390000  0.00000000
O        O    0.91823000  0.02320000  0.88610000  0.00000000
O        O    0.52320000  0.58177000  0.11390000  0.00000000
O        O    0.61390000  0.41823000  0.97680000  0.00000000
O        O    0.11390000  0.97680000  0.91823000  0.00000000
O        O    0.02320000  0.11390000  0.08177000  0.00000000
O        O    0.61390000  0.97680000  0.41823000  0.00000000
O        O    0.08177000  0.38610000  0.52320000  0.00000000
O        O    0.58177000  0.61390000  0.97680000  0.00000000
O        O    0.02320000  0.58177000  0.38610000  0.00000000
O        O    0.88610000  0.58177000  0.52320000  0.00000000
O        O    0.02320000  0.88610000  0.91823000  0.00000000
O        O    0.11390000  0.91823000  0.97680000  0.00000000
O        O    0.91823000  0.38610000  0.47680000  0.00000000
O        O    0.91823000  0.52320000  0.61390000  0.00000000
O        O    0.61390000  0.58177000  0.97680000  0.00000000
O        O    0.47680000  0.41823000  0.88610000  0.00000000
O        O    0.38610000  0.41823000  0.02320000  0.00000000
O        O    0.02320000  0.88610000  0.08177000  0.00000000
O        O    0.41823000  0.52320000  0.11390000  0.00000000
O        O    0.58177000  0.47680000  0.88610000  0.00000000
O        O    0.02320000  0.08177000  0.11390000  0.00000000
O        O    0.11390000  0.47680000  0.58177000  0.00000000
O        O    0.11390000  0.52320000  0.41823000  0.00000000
O        O    0.91823000  0.61390000  0.52320000  0.00000000
O        O    0.61390000  0.08177000  0.47680000  0.00000000
O        O    0.38610000  0.52320000  0.91823000  0.00000000
O        O    0.52320000  0.38610000  0.08177000  0.00000000
O        O    0.41823000  0.38610000  0.97680000  0.00000000
O        O    0.97680000  0.08177000  0.11390000  0.00000000
O        O    0.58177000  0.97680000  0.61390000  0.00000000
O        O    0.38610000  0.91823000  0.52320000  0.00000000
O        O    0.91823000  0.97680000  0.11390000  0.00000000
O        O    0.52320000  0.91823000  0.38610000  0.00000000
O        O    0.88610000  0.08177000  0.97680000  0.00000000
O        O    0.91823000  0.11390000  0.97680000  0.00000000
O        O    0.41823000  0.61390000  0.97680000  0.00000000
O        O    0.61390000  0.47680000  0.91823000  0.00000000
O        O    0.61390000  0.58177000  0.02320000  0.00000000
O        O    0.47680000  0.11390000  0.41823000  0.00000000
O        O    0.08177000  0.47680000  0.38610000  0.00000000
O        O    0.02320000  0.91823000  0.88610000  0.00000000
O        O    0.02320000  0.08177000  0.88610000  0.00000000
O        O    0.58177000  0.88610000  0.52320000  0.00000000
O        O    0.11390000  0.41823000  0.47680000  0.00000000
O        O    0.08177000  0.61390000  0.47680000  0.00000000
O        O    0.38610000  0.41823000  0.97680000  0.00000000
O        O    0.97680000  0.88610000  0.91823000  0.00000000
O        O    0.88610000  0.91823000  0.02320000  0.00000000
O        O    0.52320000  0.11390000  0.41823000  0.00000000
O        O    0.38610000  0.97680000  0.58177000  0.00000000
O        O    0.11390000  0.52320000  0.58177000  0.00000000
O        O    0.97680000  0.41823000  0.61390000  0.00000000
O        O    0.61390000  0.02320000  0.58177000  0.00000000
O        O    0.38610000  0.02320000  0.41823000  0.00000000
O        O    0.52320000  0.08177000  0.61390000  0.00000000
O        O    0.11390000  0.08177000  0.02320000  0.00000000
O        O    0.47680000  0.88610000  0.58177000  0.00000000
O        O    0.38610000  0.97680000  0.41823000  0.00000000
O        O    0.38610000  0.58177000  0.02320000  0.00000000
O        O    0.41823000  0.38610000  0.02320000  0.00000000
O        O    0.58177000  0.97680000  0.38610000  0.00000000
O        O    0.58177000  0.52320000  0.88610000  0.00000000
O        O    0.41823000  0.52320000  0.88610000  0.00000000
O        O    0.38610000  0.47680000  0.91823000  0.00000000
O        O    0.41823000  0.97680000  0.38610000  0.00000000
O        O    0.02320000  0.91823000  0.11390000  0.00000000
O        O    0.61390000  0.91823000  0.47680000  0.00000000
O        O    0.38610000  0.52320000  0.08177000  0.00000000
O        O    0.02320000  0.11390000  0.91823000  0.00000000
O        O    0.88610000  0.08177000  0.02320000  0.00000000
O        O    0.52320000  0.08177000  0.38610000  0.00000000
O        O    0.41823000  0.47680000  0.11390000  0.00000000
O        O    0.38610000  0.58177000  0.97680000  0.00000000
O        O    0.61390000  0.52320000  0.08177000  0.00000000
O        O    0.91823000  0.02320000  0.11390000  0.00000000
O        O    0.52320000  0.38610000  0.91823000  0.00000000
O        O    0.58177000  0.38610000  0.97680000  0.00000000
O        O    0.97680000  0.88610000  0.08177000  0.00000000
O        O    0.52320000  0.58177000  0.88610000  0.00000000
O        O    0.88610000  0.41823000  0.52320000  0.00000000
O        O    0.61390000  0.47680000  0.08177000  0.00000000
O        O    0.88610000  0.02320000  0.91823000  0.00000000
O        O    0.88610000  0.91823000  0.97680000  0.00000000
O        O    0.88610000  0.97680000  0.91823000  0.00000000
O        O    0.58177000  0.88610000  0.47680000  0.00000000
O        O    0.52320000  0.91823000  0.61390000  0.00000000
O        O    0.97680000  0.38610000  0.58177000  0.00000000
O        O    0.11390000  0.02320000  0.08177000  0.00000000
O        O    0.02320000  0.61390000  0.41823000  0.00000000
O        O    0.02320000  0.58177000  0.61390000  0.00000000
O        O    0.38610000  0.47680000  0.08177000  0.00000000
O        O    0.08177000  0.11390000  0.02320000  0.00000000
O        O    0.52320000  0.41823000  0.11390000  0.00000000
O        O    0.88610000  0.52320000  0.41823000  0.00000000
O        O    0.52320000  0.61390000  0.08177000  0.00000000
O        O    0.91823000  0.88610000  0.02320000  0.00000000
O        O    0.85910000  0.52290000  0.60800000  0.00000000
O        O    0.47710000  0.10800000  0.35910000  0.00000000
O        O    0.64090000  0.52290000  0.89200000  0.00000000
O        O    0.10800000  0.14090000  0.97710000  0.00000000
O        O    0.97710000  0.39200000  0.35910000  0.00000000
O        O    0.89200000  0.97710000  0.85910000  0.00000000
O        O    0.89200000  0.14090000  0.02290000  0.00000000
O        O    0.10800000  0.85910000  0.97710000  0.00000000
O        O    0.97710000  0.89200000  0.85910000  0.00000000
O        O    0.97710000  0.60800000  0.35910000  0.00000000
O        O    0.64090000  0.39200000  0.02290000  0.00000000
O        O    0.10800000  0.52290000  0.64090000  0.00000000
O        O    0.10800000  0.02290000  0.85910000  0.00000000
O        O    0.97710000  0.64090000  0.39200000  0.00000000
O        O    0.35910000  0.89200000  0.47710000  0.00000000
O        O    0.64090000  0.97710000  0.60800000  0.00000000
O        O    0.47710000  0.10800000  0.64090000  0.00000000
O        O    0.47710000  0.85910000  0.39200000  0.00000000
O        O    0.10800000  0.47710000  0.64090000  0.00000000
O        O    0.85910000  0.47710000  0.60800000  0.00000000
O        O    0.47710000  0.89200000  0.35910000  0.00000000
O        O    0.35910000  0.10800000  0.47710000  0.00000000
O        O    0.85910000  0.60800000  0.47710000  0.00000000
O        O    0.47710000  0.60800000  0.85910000  0.00000000
O        O    0.39200000  0.97710000  0.64090000  0.00000000
O        O    0.85910000  0.02290000  0.10800000  0.00000000
O        O    0.14090000  0.60800000  0.47710000  0.00000000
O        O    0.14090000  0.60800000  0.52290000  0.00000000
O        O    0.60800000  0.14090000  0.52290000  0.00000000
O        O    0.52290000  0.64090000  0.89200000  0.00000000
O        O    0.52290000  0.85910000  0.60800000  0.00000000
O        O    0.35910000  0.10800000  0.52290000  0.00000000
O        O    0.14090000  0.02290000  0.89200000  0.00000000
O        O    0.10800000  0.52290000  0.35910000  0.00000000
O        O    0.85910000  0.47710000  0.39200000  0.00000000
O        O    0.64090000  0.10800000  0.52290000  0.00000000
O        O    0.97710000  0.89200000  0.14090000  0.00000000
O        O    0.39200000  0.47710000  0.85910000  0.00000000
O        O    0.52290000  0.85910000  0.39200000  0.00000000
O        O    0.60800000  0.47710000  0.14090000  0.00000000
O        O    0.97710000  0.14090000  0.89200000  0.00000000
O        O    0.10800000  0.97710000  0.14090000  0.00000000
O        O    0.39200000  0.02290000  0.35910000  0.00000000
O        O    0.02290000  0.35910000  0.60800000  0.00000000
O        O    0.60800000  0.02290000  0.64090000  0.00000000
O        O    0.89200000  0.35910000  0.52290000  0.00000000
O        O    0.89200000  0.47710000  0.35910000  0.00000000
O        O    0.89200000  0.52290000  0.35910000  0.00000000
O        O    0.39200000  0.85910000  0.52290000  0.00000000
O        O    0.60800000  0.14090000  0.47710000  0.00000000
O        O    0.85910000  0.39200000  0.47710000  0.00000000
O        O    0.97710000  0.14090000  0.10800000  0.00000000
O        O    0.02290000  0.39200000  0.35910000  0.00000000
O        O    0.35910000  0.02290000  0.60800000  0.00000000
O        O    0.60800000  0.64090000  0.02290000  0.00000000
O        O    0.47710000  0.39200000  0.14090000  0.00000000
O        O    0.47710000  0.64090000  0.10800000  0.00000000
O        O    0.89200000  0.47710000  0.64090000  0.00000000
O        O    0.60800000  0.52290000  0.14090000  0.00000000
O        O    0.02290000  0.39200000  0.64090000  0.00000000
O        O    0.10800000  0.64090000  0.52290000  0.00000000
O        O    0.52290000  0.14090000  0.60800000  0.00000000
O        O    0.39200000  0.14090000  0.52290000  0.00000000
O        O    0.14090000  0.47710000  0.39200000  0.00000000
O        O    0.39200000  0.85910000  0.47710000  0.00000000
O        O    0.47710000  0.14090000  0.60800000  0.00000000
O        O    0.02290000  0.35910000  0.39200000  0.00000000
O        O    0.14090000  0.97710000  0.10800000  0.00000000
O        O    0.97710000  0.35910000  0.39200000  0.00000000
O        O    0.10800000  0.85910000  0.02290000  0.00000000
O        O    0.97710000  0.60800000  0.64090000  0.00000000
O        O    0.39200000  0.14090000  0.47710000  0.00000000
O        O    0.47710000  0.89200000  0.64090000  0.00000000
O        O    0.10800000  0.35910000  0.47710000  0.00000000
O        O    0.60800000  0.02290000  0.35910000  0.00000000
O        O    0.10800000  0.97710000  0.85910000  0.00000000
O        O    0.47710000  0.60800000  0.14090000  0.00000000
O        O    0.14090000  0.10800000  0.97710000  0.00000000
O        O    0.85910000  0.97710000  0.10800000  0.00000000
O        O    0.14090000  0.39200000  0.52290000  0.00000000
O        O    0.97710000  0.64090000  0.60800000  0.00000000
O        O    0.64090000  0.02290000  0.39200000  0.00000000
O        O    0.47710000  0.64090000  0.89200000  0.00000000
O        O    0.64090000  0.89200000  0.52290000  0.00000000
O        O    0.52290000  0.39200000  0.85910000  0.00000000
O        O    0.10800000  0.02290000  0.14090000  0.00000000
O        O    0.47710000  0.35910000  0.10800000  0.00000000
O        O    0.89200000  0.85910000  0.97710000  0.00000000
O        O    0.47710000  0.35910000  0.89200000  0.00000000
O        O    0.02290000  0.64090000  0.60800000  0.00000000
O        O    0.97710000  0.10800000  0.85910000  0.00000000
O        O    0.60800000  0.35910000  0.02290000  0.00000000
O        O    0.14090000  0.89200000  0.02290000  0.00000000
O        O    0.39200000  0.64090000  0.02290000  0.00000000
O        O    0.89200000  0.64090000  0.47710000  0.00000000
O        O    0.39200000  0.02290000  0.64090000  0.00000000
O        O    0.89200000  0.02290000  0.85910000  0.00000000
O        O    0.52290000  0.60800000  0.14090000  0.00000000
O        O    0.64090000  0.39200000  0.97710000  0.00000000
O        O    0.14090000  0.97710000  0.89200000  0.00000000
O        O    0.02290000  0.14090000  0.10800000  0.00000000
O        O    0.64090000  0.97710000  0.39200000  0.00000000
O        O    0.10800000  0.35910000  0.52290000  0.00000000
O        O    0.60800000  0.64090000  0.97710000  0.00000000
O        O    0.02290000  0.60800000  0.35910000  0.00000000
O        O    0.85910000  0.60800000  0.52290000  0.00000000
O        O    0.02290000  0.85910000  0.89200000  0.00000000
O        O    0.14090000  0.89200000  0.97710000  0.00000000
O        O    0.89200000  0.35910000  0.47710000  0.00000000
O        O    0.89200000  0.52290000  0.64090000  0.00000000
O        O    0.64090000  0.60800000  0.97710000  0.00000000
O        O    0.47710000  0.39200000  0.85910000  0.00000000
O        O    0.35910000  0.39200000  0.02290000  0.00000000
O        O    0.02290000  0.85910000  0.10800000  0.00000000
O        O    0.39200000  0.52290000  0.14090000  0.00000000
O        O    0.60800000  0.47710000  0.85910000  0.00000000
O        O    0.02290000  0.10800000  0.14090000  0.00000000
O        O    0.14090000  0.47710000  0.60800000  0.00000000
O        O    0.14090000  0.52290000  0.39200000  0.00000000
O        O    0.89200000  0.64090000  0.52290000  0.00000000
O        O    0.64090000  0.10800000  0.47710000  0.00000000
O        O    0.35910000  0.52290000  0.89200000  0.00000000
O        O    0.52290000  0.35910000  0.10800000  0.00000000
O        O    0.39200000  0.35910000  0.97710000  0.00000000
O        O    0.97710000  0.10800000  0.14090000  0.00000000
O        O    0.60800000  0.97710000  0.64090000  0.00000000
O        O    0.35910000  0.89200000  0.52290000  0.00000000
O        O    0.89200000  0.97710000  0.14090000  0.00000000
O        O    0.52290000  0.89200000  0.35910000  0.00000000
O        O    0.85910000  0.10800000  0.97710000  0.00000000
O        O    0.89200000  0.14090000  0.97710000  0.00000000
O        O    0.39200000  0.64090000  0.97710000  0.00000000
O        O    0.64090000  0.47710000  0.89200000  0.00000000
O        O    0.64090000  0.60800000  0.02290000  0.00000000
O        O    0.47710000  0.14090000  0.39200000  0.00000000
O        O    0.10800000  0.47710000  0.35910000  0.00000000
O        O    0.02290000  0.89200000  0.85910000  0.00000000
O        O    0.02290000  0.10800000  0.85910000  0.00000000
O        O    0.60800000  0.85910000  0.52290000  0.00000000
O        O    0.14090000  0.39200000  0.47710000  0.00000000
O        O    0.10800000  0.64090000  0.47710000  0.00000000
O        O    0.35910000  0.39200000  0.97710000  0.00000000
O        O    0.97710000  0.85910000  0.89200000  0.00000000
O        O    0.85910000  0.89200000  0.02290000  0.00000000
O        O    0.52290000  0.14090000  0.39200000  0.00000000
O        O    0.35910000  0.97710000  0.60800000  0.00000000
O        O    0.14090000  0.52290000  0.60800000  0.00000000
O        O    0.97710000  0.39200000  0.64090000  0.00000000
O        O    0.64090000  0.02290000  0.60800000  0.00000000
O        O    0.35910000  0.02290000  0.39200000  0.00000000
O        O    0.52290000  0.10800000  0.64090000  0.00000000
O        O    0.14090000  0.10800000  0.02290000  0.00000000
O        O    0.47710000  0.85910000  0.60800000  0.00000000
O        O    0.35910000  0.97710000  0.39200000  0.00000000
O        O    0.35910000  0.60800000  0.02290000  0.00000000
O        O    0.39200000  0.35910000  0.02290000  0.00000000
O        O    0.60800000  0.97710000  0.35910000  0.00000000
O        O    0.60800000  0.52290000  0.85910000  0.00000000
O        O    0.39200000  0.52290000  0.85910000  0.00000000
O        O    0.35910000  0.47710000  0.89200000  0.00000000
O        O    0.39200000  0.97710000  0.35910000  0.00000000
O        O    0.02290000  0.89200000  0.14090000  0.00000000
O        O    0.64090000  0.89200000  0.47710000  0.00000000
O        O    0.35910000  0.52290000  0.10800000  0.00000000
O        O    0.02290000  0.14090000  0.89200000  0.00000000
O        O    0.85910000  0.10800000  0.02290000  0.00000000
O        O    0.52290000  0.10800000  0.35910000  0.00000000
O        O    0.39200000  0.47710000  0.14090000  0.00000000
O        O    0.35910000  0.60800000  0.97710000  0.00000000
O        O    0.64090000  0.52290000  0.10800000  0.00000000
O        O    0.89200000  0.02290000  0.14090000  0.00000000
O        O    0.52290000  0.35910000  0.89200000  0.00000000
O        O    0.60800000  0.35910000  0.97710000  0.00000000
O        O    0.97710000  0.85910000  0.10800000  0.00000000
O        O    0.52290000  0.60800000  0.85910000  0.00000000
O        O    0.85910000  0.39200000  0.52290000  0.00000000
O        O    0.64090000  0.47710000  0.10800000  0.00000000
O        O    0.85910000  0.02290000  0.89200000  0.00000000
O        O    0.85910000  0.89200000  0.97710000  0.00000000
O        O    0.85910000  0.97710000  0.89200000  0.00000000
O        O    0.60800000  0.85910000  0.47710000  0.00000000
O        O    0.52290000  0.89200000  0.64090000  0.00000000
O        O    0.97710000  0.35910000  0.60800000  0.00000000
O        O    0.14090000  0.02290000  0.10800000  0.00000000
O        O    0.02290000  0.64090000  0.39200000  0.00000000
O        O    0.02290000  0.60800000  0.64090000  0.00000000
O        O    0.35910000  0.47710000  0.10800000  0.00000000
O        O    0.10800000  0.14090000  0.02290000  0.00000000
O        O    0.52290000  0.39200000  0.14090000  0.00000000
O        O    0.85910000  0.52290000  0.39200000  0.00000000
O        O    0.52290000  0.64090000  0.10800000  0.00000000
O        O    0.89200000  0.85910000  0.02290000  0.00000000
C        C    0.86830000  0.53050000  0.59010000  0.00000000
C        C    0.46950000  0.09010000  0.36830000  0.00000000
C        C    0.63170000  0.53050000  0.90990000  0.00000000
C        C    0.09010000  0.13170000  0.96950000  0.00000000
C        C    0.96950000  0.40990000  0.36830000  0.00000000
C        C    0.90990000  0.96950000  0.86830000  0.00000000
C        C    0.90990000  0.13170000  0.03050000  0.00000000
C        C    0.09010000  0.86830000  0.96950000  0.00000000
C        C    0.96950000  0.90990000  0.86830000  0.00000000
C        C    0.96950000  0.59010000  0.36830000  0.00000000
C        C    0.63170000  0.40990000  0.03050000  0.00000000
C        C    0.09010000  0.53050000  0.63170000  0.00000000
C        C    0.09010000  0.03050000  0.86830000  0.00000000
C        C    0.96950000  0.63170000  0.40990000  0.00000000
C        C    0.36830000  0.90990000  0.46950000  0.00000000
C        C    0.63170000  0.96950000  0.59010000  0.00000000
C        C    0.46950000  0.09010000  0.63170000  0.00000000
C        C    0.46950000  0.86830000  0.40990000  0.00000000
C        C    0.09010000  0.46950000  0.63170000  0.00000000
C        C    0.86830000  0.46950000  0.59010000  0.00000000
C        C    0.46950000  0.90990000  0.36830000  0.00000000
C        C    0.36830000  0.09010000  0.46950000  0.00000000
C        C    0.86830000  0.59010000  0.46950000  0.00000000
C        C    0.46950000  0.59010000  0.86830000  0.00000000
C        C    0.40990000  0.96950000  0.63170000  0.00000000
C        C    0.86830000  0.03050000  0.09010000  0.00000000
C        C    0.13170000  0.59010000  0.46950000  0.00000000
C        C    0.13170000  0.59010000  0.53050000  0.00000000
C        C    0.59010000  0.13170000  0.53050000  0.00000000
C        C    0.53050000  0.63170000  0.90990000  0.00000000
C        C    0.53050000  0.86830000  0.59010000  0.00000000
C        C    0.36830000  0.09010000  0.53050000  0.00000000
C        C    0.13170000  0.03050000  0.90990000  0.00000000
C        C    0.09010000  0.53050000  0.36830000  0.00000000
C        C    0.86830000  0.46950000  0.40990000  0.00000000
C        C    0.63170000  0.09010000  0.53050000  0.00000000
C        C    0.96950000  0.90990000  0.13170000  0.00000000
C        C    0.40990000  0.46950000  0.86830000  0.00000000
C        C    0.53050000  0.86830000  0.40990000  0.00000000
C        C    0.59010000  0.46950000  0.13170000  0.00000000
C        C    0.96950000  0.13170000  0.90990000  0.00000000
C        C    0.09010000  0.96950000  0.13170000  0.00000000
C        C    0.40990000  0.03050000  0.36830000  0.00000000
C        C    0.03050000  0.36830000  0.59010000  0.00000000
C        C    0.59010000  0.03050000  0.63170000  0.00000000
C        C    0.90990000  0.36830000  0.53050000  0.00000000
C        C    0.90990000  0.46950000  0.36830000  0.00000000
C        C    0.90990000  0.53050000  0.36830000  0.00000000
C        C    0.40990000  0.86830000  0.53050000  0.00000000
C        C    0.59010000  0.13170000  0.46950000  0.00000000
C        C    0.86830000  0.40990000  0.46950000  0.00000000
C        C    0.96950000  0.13170000  0.09010000  0.00000000
C        C    0.03050000  0.40990000  0.36830000  0.00000000
C        C    0.36830000  0.03050000  0.59010000  0.00000000
C        C    0.59010000  0.63170000  0.03050000  0.00000000
C        C    0.46950000  0.40990000  0.13170000  0.00000000
C        C    0.46950000  0.63170000  0.09010000  0.00000000
C        C    0.90990000  0.46950000  0.63170000  0.00000000
C        C    0.59010000  0.53050000  0.13170000  0.00000000
C        C    0.03050000  0.40990000  0.63170000  0.00000000
C        C    0.09010000  0.63170000  0.53050000  0.00000000
C        C    0.53050000  0.13170000  0.59010000  0.00000000
C        C    0.40990000  0.13170000  0.53050000  0.00000000
C        C    0.13170000  0.46950000  0.40990000  0.00000000
C        C    0.40990000  0.86830000  0.46950000  0.00000000
C        C    0.46950000  0.13170000  0.59010000  0.00000000
C        C    0.03050000  0.36830000  0.40990000  0.00000000
C        C    0.13170000  0.96950000  0.09010000  0.00000000
C        C    0.96950000  0.36830000  0.40990000  0.00000000
C        C    0.09010000  0.86830000  0.03050000  0.00000000
C        C    0.96950000  0.59010000  0.63170000  0.00000000
C        C    0.40990000  0.13170000  0.46950000  0.00000000
C        C    0.46950000  0.90990000  0.63170000  0.00000000
C        C    0.09010000  0.36830000  0.46950000  0.00000000
C        C    0.59010000  0.03050000  0.36830000  0.00000000
C        C    0.09010000  0.96950000  0.86830000  0.00000000
C        C    0.46950000  0.59010000  0.13170000  0.00000000
C        C    0.13170000  0.09010000  0.96950000  0.00000000
C        C    0.86830000  0.96950000  0.09010000  0.00000000
C        C    0.13170000  0.40990000  0.53050000  0.00000000
C        C    0.96950000  0.63170000  0.59010000  0.00000000
C        C    0.63170000  0.03050000  0.40990000  0.00000000
C        C    0.46950000  0.63170000  0.90990000  0.00000000
C        C    0.63170000  0.90990000  0.53050000  0.00000000
C        C    0.53050000  0.40990000  0.86830000  0.00000000
C        C    0.09010000  0.03050000  0.13170000  0.00000000
C        C    0.46950000  0.36830000  0.09010000  0.00000000
C        C    0.90990000  0.86830000  0.96950000  0.00000000
C        C    0.46950000  0.36830000  0.90990000  0.00000000
C        C    0.03050000  0.63170000  0.59010000  0.00000000
C        C    0.96950000  0.09010000  0.86830000  0.00000000
C        C    0.59010000  0.36830000  0.03050000  0.00000000
C        C    0.13170000  0.90990000  0.03050000  0.00000000
C        C    0.40990000  0.63170000  0.03050000  0.00000000
C        C    0.90990000  0.63170000  0.46950000  0.00000000
C        C    0.40990000  0.03050000  0.63170000  0.00000000
C        C    0.90990000  0.03050000  0.86830000  0.00000000
C        C    0.53050000  0.59010000  0.13170000  0.00000000
C        C    0.63170000  0.40990000  0.96950000  0.00000000
C        C    0.13170000  0.96950000  0.90990000  0.00000000
C        C    0.03050000  0.13170000  0.09010000  0.00000000
C        C    0.63170000  0.96950000  0.40990000  0.00000000
C        C    0.09010000  0.36830000  0.53050000  0.00000000
C        C    0.59010000  0.63170000  0.96950000  0.00000000
C        C    0.03050000  0.59010000  0.36830000  0.00000000
C        C    0.86830000  0.59010000  0.53050000  0.00000000
C        C    0.03050000  0.86830000  0.90990000  0.00000000
C        C    0.13170000  0.90990000  0.96950000  0.00000000
C        C    0.90990000  0.36830000  0.46950000  0.00000000
C        C    0.90990000  0.53050000  0.63170000  0.00000000
C        C    0.63170000  0.59010000  0.96950000  0.00000000
C        C    0.46950000  0.40990000  0.86830000  0.00000000
C        C    0.36830000  0.40990000  0.03050000  0.00000000
C        C    0.03050000  0.86830000  0.09010000  0.00000000
C        C    0.40990000  0.53050000  0.13170000  0.00000000
C        C    0.59010000  0.46950000  0.86830000  0.00000000
C        C    0.03050000  0.09010000  0.13170000  0.00000000
C        C    0.13170000  0.46950000  0.59010000  0.00000000
C        C    0.13170000  0.53050000  0.40990000  0.00000000
C        C    0.90990000  0.63170000  0.53050000  0.00000000
C        C    0.63170000  0.09010000  0.46950000  0.00000000
C        C    0.36830000  0.53050000  0.90990000  0.00000000
C        C    0.53050000  0.36830000  0.09010000  0.00000000
C        C    0.40990000  0.36830000  0.96950000  0.00000000
C        C    0.96950000  0.09010000  0.13170000  0.00000000
C        C    0.59010000  0.96950000  0.63170000  0.00000000
C        C    0.36830000  0.90990000  0.53050000  0.00000000
C        C    0.90990000  0.96950000  0.13170000  0.00000000
C        C    0.53050000  0.90990000  0.36830000  0.00000000
C        C    0.86830000  0.09010000  0.96950000  0.00000000
C        C    0.90990000  0.13170000  0.96950000  0.00000000
C        C    0.40990000  0.63170000  0.96950000  0.00000000
C        C    0.63170000  0.46950000  0.90990000  0.00000000
C        C    0.63170000  0.59010000  0.03050000  0.00000000
C        C    0.46950000  0.13170000  0.40990000  0.00000000
C        C    0.09010000  0.46950000  0.36830000  0.00000000
C        C    0.03050000  0.90990000  0.86830000  0.00000000
C        C    0.03050000  0.09010000  0.86830000  0.00000000
C        C    0.59010000  0.86830000  0.53050000  0.00000000
C        C    0.13170000  0.40990000  0.46950000  0.00000000
C        C    0.09010000  0.63170000  0.46950000  0.00000000
C        C    0.36830000  0.40990000  0.96950000  0.00000000
C        C    0.96950000  0.86830000  0.90990000  0.00000000
C        C    0.86830000  0.90990000  0.03050000  0.00000000
C        C    0.53050000  0.13170000  0.40990000  0.00000000
C        C    0.36830000  0.96950000  0.59010000  0.00000000
C        C    0.13170000  0.53050000  0.59010000  0.00000000
C        C    0.96950000  0.40990000  0.63170000  0.00000000
C        C    0.63170000  0.03050000  0.59010000  0.00000000
C        C    0.36830000  0.03050000  0.40990000  0.00000000
C        C    0.53050000  0.09010000  0.63170000  0.00000000
C        C    0.13170000  0.09010000  0.03050000  0.00000000
C        C    0.46950000  0.86830000  0.59010000  0.00000000
C        C    0.36830000  0.96950000  0.40990000  0.00000000
C        C    0.36830000  0.59010000  0.03050000  0.00000000
C        C    0.40990000  0.36830000  0.03050000  0.00000000
C        C    0.59010000  0.96950000  0.36830000  0.00000000
C        C    0.59010000  0.53050000  0.86830000  0.00000000
C        C    0.40990000  0.53050000  0.86830000  0.00000000
C        C    0.36830000  0.46950000  0.90990000  0.00000000
C        C    0.40990000  0.96950000  0.36830000  0.00000000
C        C    0.03050000  0.90990000  0.13170000  0.00000000
C        C    0.63170000  0.90990000  0.46950000  0.00000000
C        C    0.36830000  0.53050000  0.09010000  0.00000000
C        C    0.03050000  0.13170000  0.90990000  0.00000000
C        C    0.86830000  0.09010000  0.03050000  0.00000000
C        C    0.53050000  0.09010000  0.36830000  0.00000000
C        C    0.40990000  0.46950000  0.13170000  0.00000000
C        C    0.36830000  0.59010000  0.96950000  0.00000000
C        C    0.63170000  0.53050000  0.09010000  0.00000000
C        C    0.90990000  0.03050000  0.13170000  0.00000000
C        C    0.53050000  0.36830000  0.90990000  0.00000000
C        C    0.59010000  0.36830000  0.96950000  0.00000000
C        C    0.96950000  0.86830000  0.09010000  0.00000000
C        C    0.53050000  0.59010000  0.86830000  0.00000000
C        C    0.86830000  0.40990000  0.53050000  0.00000000
C        C    0.63170000  0.46950000  0.09010000  0.00000000
C        C    0.86830000  0.03050000  0.90990000  0.00000000
C        C    0.86830000  0.90990000  0.96950000  0.00000000
C        C    0.86830000  0.96950000  0.90990000  0.00000000
C        C    0.59010000  0.86830000  0.46950000  0.00000000
C        C    0.53050000  0.90990000  0.63170000  0.00000000
C        C    0.96950000  0.36830000  0.59010000  0.00000000
C        C    0.13170000  0.03050000  0.09010000  0.00000000
C        C    0.03050000  0.63170000  0.40990000  0.00000000
C        C    0.03050000  0.59010000  0.63170000  0.00000000
C        C    0.36830000  0.46950000  0.09010000  0.00000000
C        C    0.09010000  0.13170000  0.03050000  0.00000000
C        C    0.53050000  0.40990000  0.13170000  0.00000000
C        C    0.86830000  0.53050000  0.40990000  0.00000000
C        C    0.53050000  0.63170000  0.09010000  0.00000000
C        C    0.90990000  0.86830000  0.03050000  0.00000000
C        C    0.93970000  0.93970000  0.86680000  0.00000000
C        C    0.43970000  0.06030000  0.36680000  0.00000000
C        C    0.93970000  0.43970000  0.36680000  0.00000000
C        C    0.93970000  0.56030000  0.36680000  0.00000000
C        C    0.86680000  0.43970000  0.43970000  0.00000000
C        C    0.93970000  0.13320000  0.06030000  0.00000000
C        C    0.36680000  0.06030000  0.56030000  0.00000000
C        C    0.06030000  0.43970000  0.63320000  0.00000000
C        C    0.56030000  0.13320000  0.56030000  0.00000000
C        C    0.43970000  0.86680000  0.43970000  0.00000000
C        C    0.43970000  0.13320000  0.56030000  0.00000000
C        C    0.43970000  0.93970000  0.63320000  0.00000000
C        C    0.06030000  0.36680000  0.43970000  0.00000000
C        C    0.13320000  0.06030000  0.93970000  0.00000000
C        C    0.63320000  0.93970000  0.56030000  0.00000000
C        C    0.06030000  0.63320000  0.56030000  0.00000000
C        C    0.13320000  0.93970000  0.06030000  0.00000000
C        C    0.43970000  0.63320000  0.06030000  0.00000000
C        C    0.93970000  0.63320000  0.43970000  0.00000000
C        C    0.43970000  0.06030000  0.63320000  0.00000000
C        C    0.93970000  0.06030000  0.86680000  0.00000000
C        C    0.56030000  0.56030000  0.13320000  0.00000000
C        C    0.06030000  0.36680000  0.56030000  0.00000000
C        C    0.56030000  0.63320000  0.93970000  0.00000000
C        C    0.06030000  0.56030000  0.36680000  0.00000000
C        C    0.86680000  0.56030000  0.56030000  0.00000000
C        C    0.06030000  0.86680000  0.93970000  0.00000000
C        C    0.13320000  0.93970000  0.93970000  0.00000000
C        C    0.93970000  0.36680000  0.43970000  0.00000000
C        C    0.93970000  0.56030000  0.63320000  0.00000000
C        C    0.63320000  0.56030000  0.93970000  0.00000000
C        C    0.43970000  0.43970000  0.86680000  0.00000000
C        C    0.06030000  0.86680000  0.06030000  0.00000000
C        C    0.43970000  0.56030000  0.13320000  0.00000000
C        C    0.56030000  0.43970000  0.86680000  0.00000000
C        C    0.06030000  0.06030000  0.13320000  0.00000000
C        C    0.13320000  0.43970000  0.56030000  0.00000000
C        C    0.13320000  0.56030000  0.43970000  0.00000000
C        C    0.93970000  0.63320000  0.56030000  0.00000000
C        C    0.63320000  0.06030000  0.43970000  0.00000000
C        C    0.56030000  0.36680000  0.06030000  0.00000000
C        C    0.43970000  0.36680000  0.93970000  0.00000000
C        C    0.93970000  0.93970000  0.13320000  0.00000000
C        C    0.93970000  0.13320000  0.93970000  0.00000000
C        C    0.43970000  0.63320000  0.93970000  0.00000000
C        C    0.63320000  0.43970000  0.93970000  0.00000000
C        C    0.43970000  0.13320000  0.43970000  0.00000000
C        C    0.06030000  0.43970000  0.36680000  0.00000000
C        C    0.06030000  0.93970000  0.86680000  0.00000000
C        C    0.06030000  0.06030000  0.86680000  0.00000000
C        C    0.56030000  0.86680000  0.56030000  0.00000000
C        C    0.13320000  0.43970000  0.43970000  0.00000000
C        C    0.93970000  0.86680000  0.93970000  0.00000000
C        C    0.86680000  0.93970000  0.06030000  0.00000000
C        C    0.56030000  0.13320000  0.43970000  0.00000000
C        C    0.36680000  0.93970000  0.56030000  0.00000000
C        C    0.13320000  0.56030000  0.56030000  0.00000000
C        C    0.93970000  0.43970000  0.63320000  0.00000000
C        C    0.63320000  0.06030000  0.56030000  0.00000000
C        C    0.36680000  0.06030000  0.43970000  0.00000000
C        C    0.56030000  0.06030000  0.63320000  0.00000000
C        C    0.43970000  0.86680000  0.56030000  0.00000000
C        C    0.36680000  0.93970000  0.43970000  0.00000000
C        C    0.43970000  0.36680000  0.06030000  0.00000000
C        C    0.56030000  0.93970000  0.36680000  0.00000000
C        C    0.43970000  0.56030000  0.86680000  0.00000000
C        C    0.36680000  0.43970000  0.93970000  0.00000000
C        C    0.43970000  0.93970000  0.36680000  0.00000000
C        C    0.06030000  0.93970000  0.13320000  0.00000000
C        C    0.63320000  0.93970000  0.43970000  0.00000000
C        C    0.36680000  0.56030000  0.06030000  0.00000000
C        C    0.06030000  0.13320000  0.93970000  0.00000000
C        C    0.86680000  0.06030000  0.06030000  0.00000000
C        C    0.56030000  0.06030000  0.36680000  0.00000000
C        C    0.43970000  0.43970000  0.13320000  0.00000000
C        C    0.36680000  0.56030000  0.93970000  0.00000000
C        C    0.63320000  0.56030000  0.06030000  0.00000000
C        C    0.93970000  0.06030000  0.13320000  0.00000000
C        C    0.56030000  0.36680000  0.93970000  0.00000000
C        C    0.56030000  0.56030000  0.86680000  0.00000000
C        C    0.86680000  0.43970000  0.56030000  0.00000000
C        C    0.63320000  0.43970000  0.06030000  0.00000000
C        C    0.86680000  0.06030000  0.93970000  0.00000000
C        C    0.86680000  0.93970000  0.93970000  0.00000000
C        C    0.56030000  0.86680000  0.43970000  0.00000000
C        C    0.56030000  0.93970000  0.63320000  0.00000000
C        C    0.93970000  0.36680000  0.56030000  0.00000000
C        C    0.13320000  0.06030000  0.06030000  0.00000000
C        C    0.06030000  0.63320000  0.43970000  0.00000000
C        C    0.06030000  0.56030000  0.63320000  0.00000000
C        C    0.36680000  0.43970000  0.06030000  0.00000000
C        C    0.06030000  0.13320000  0.06030000  0.00000000
C        C    0.56030000  0.43970000  0.13320000  0.00000000
C        C    0.86680000  0.56030000  0.43970000  0.00000000
C        C    0.56030000  0.63320000  0.06030000  0.00000000
C        C    0.93970000  0.86680000  0.06030000  0.00000000
H        H    0.94490000  0.94490000  0.88110000  0.00000000
H        H    0.44490000  0.05510000  0.38110000  0.00000000
H        H    0.94490000  0.44490000  0.38110000  0.00000000
H        H    0.94490000  0.55510000  0.38110000  0.00000000
H        H    0.88110000  0.44490000  0.44490000  0.00000000
H        H    0.94490000  0.11890000  0.05510000  0.00000000
H        H    0.38110000  0.05510000  0.55510000  0.00000000
H        H    0.05510000  0.44490000  0.61890000  0.00000000
H        H    0.55510000  0.11890000  0.55510000  0.00000000
H        H    0.44490000  0.88110000  0.44490000  0.00000000
H        H    0.44490000  0.11890000  0.55510000  0.00000000
H        H    0.44490000  0.94490000  0.61890000  0.00000000
H        H    0.05510000  0.38110000  0.44490000  0.00000000
H        H    0.11890000  0.05510000  0.94490000  0.00000000
H        H    0.61890000  0.94490000  0.55510000  0.00000000
H        H    0.05510000  0.61890000  0.55510000  0.00000000
H        H    0.11890000  0.94490000  0.05510000  0.00000000
H        H    0.44490000  0.61890000  0.05510000  0.00000000
H        H    0.94490000  0.61890000  0.44490000  0.00000000
H        H    0.44490000  0.05510000  0.61890000  0.00000000
H        H    0.94490000  0.05510000  0.88110000  0.00000000
H        H    0.55510000  0.55510000  0.11890000  0.00000000
H        H    0.05510000  0.38110000  0.55510000  0.00000000
H        H    0.55510000  0.61890000  0.94490000  0.00000000
H        H    0.05510000  0.55510000  0.38110000  0.00000000
H        H    0.88110000  0.55510000  0.55510000  0.00000000
H        H    0.05510000  0.88110000  0.94490000  0.00000000
H        H    0.11890000  0.94490000  0.94490000  0.00000000
H        H    0.94490000  0.38110000  0.44490000  0.00000000
H        H    0.94490000  0.55510000  0.61890000  0.00000000
H        H    0.61890000  0.55510000  0.94490000  0.00000000
H        H    0.44490000  0.44490000  0.88110000  0.00000000
H        H    0.05510000  0.88110000  0.05510000  0.00000000
H        H    0.44490000  0.55510000  0.11890000  0.00000000
H        H    0.55510000  0.44490000  0.88110000  0.00000000
H        H    0.05510000  0.05510000  0.11890000  0.00000000
H        H    0.11890000  0.44490000  0.55510000  0.00000000
H        H    0.11890000  0.55510000  0.44490000  0.00000000
H        H    0.94490000  0.61890000  0.55510000  0.00000000
H        H    0.61890000  0.05510000  0.44490000  0.00000000
H        H    0.55510000  0.38110000  0.05510000  0.00000000
H        H    0.44490000  0.38110000  0.94490000  0.00000000
H        H    0.94490000  0.94490000  0.11890000  0.00000000
H        H    0.94490000  0.11890000  0.94490000  0.00000000
H        H    0.44490000  0.61890000  0.94490000  0.00000000
H        H    0.61890000  0.44490000  0.94490000  0.00000000
H        H    0.44490000  0.11890000  0.44490000  0.00000000
H        H    0.05510000  0.44490000  0.38110000  0.00000000
H        H    0.05510000  0.94490000  0.88110000  0.00000000
H        H    0.05510000  0.05510000  0.88110000  0.00000000
H        H    0.55510000  0.88110000  0.55510000  0.00000000
H        H    0.11890000  0.44490000  0.44490000  0.00000000
H        H    0.94490000  0.88110000  0.94490000  0.00000000
H        H    0.88110000  0.94490000  0.05510000  0.00000000
H        H    0.55510000  0.11890000  0.44490000  0.00000000
H        H    0.38110000  0.94490000  0.55510000  0.00000000
H        H    0.11890000  0.55510000  0.55510000  0.00000000
H        H    0.94490000  0.44490000  0.61890000  0.00000000
H        H    0.61890000  0.05510000  0.55510000  0.00000000
H        H    0.38110000  0.05510000  0.44490000  0.00000000
H        H    0.55510000  0.05510000  0.61890000  0.00000000
H        H    0.44490000  0.88110000  0.55510000  0.00000000
H        H    0.38110000  0.94490000  0.44490000  0.00000000
H        H    0.44490000  0.38110000  0.05510000  0.00000000
H        H    0.55510000  0.94490000  0.38110000  0.00000000
H        H    0.44490000  0.55510000  0.88110000  0.00000000
H        H    0.38110000  0.44490000  0.94490000  0.00000000
H        H    0.44490000  0.94490000  0.38110000  0.00000000
H        H    0.05510000  0.94490000  0.11890000  0.00000000
H        H    0.61890000  0.94490000  0.44490000  0.00000000
H        H    0.38110000  0.55510000  0.05510000  0.00000000
H        H    0.05510000  0.11890000  0.94490000  0.00000000
H        H    0.88110000  0.05510000  0.05510000  0.00000000
H        H    0.55510000  0.05510000  0.38110000  0.00000000
H        H    0.44490000  0.44490000  0.11890000  0.00000000
H        H    0.38110000  0.55510000  0.94490000  0.00000000
H        H    0.61890000  0.55510000  0.05510000  0.00000000
H        H    0.94490000  0.05510000  0.11890000  0.00000000
H        H    0.55510000  0.38110000  0.94490000  0.00000000
H        H    0.55510000  0.55510000  0.88110000  0.00000000
H        H    0.88110000  0.44490000  0.55510000  0.00000000
H        H    0.61890000  0.44490000  0.05510000  0.00000000
H        H    0.88110000  0.05510000  0.94490000  0.00000000
H        H    0.88110000  0.94490000  0.94490000  0.00000000
H        H    0.55510000  0.88110000  0.44490000  0.00000000
H        H    0.55510000  0.94490000  0.61890000  0.00000000
H        H    0.94490000  0.38110000  0.55510000  0.00000000
H        H    0.11890000  0.05510000  0.05510000  0.00000000
H        H    0.05510000  0.61890000  0.44490000  0.00000000
H        H    0.05510000  0.55510000  0.61890000  0.00000000
H        H    0.38110000  0.44490000  0.05510000  0.00000000
H        H    0.05510000  0.11890000  0.05510000  0.00000000
H        H    0.55510000  0.44490000  0.11890000  0.00000000
H        H    0.88110000  0.55510000  0.44490000  0.00000000
H        H    0.55510000  0.61890000  0.05510000  0.00000000
H        H    0.94490000  0.88110000  0.05510000  0.00000000
C        C    0.85690000  0.54956000  0.57829000  0.00000000
C        C    0.45044000  0.07829000  0.35690000  0.00000000
C        C    0.64310000  0.54956000  0.92171000  0.00000000
C        C    0.07829000  0.14310000  0.95044000  0.00000000
C        C    0.95044000  0.42171000  0.35690000  0.00000000
C        C    0.92171000  0.95044000  0.85690000  0.00000000
C        C    0.92171000  0.14310000  0.04956000  0.00000000
C        C    0.07829000  0.85690000  0.95044000  0.00000000
C        C    0.95044000  0.92171000  0.85690000  0.00000000
C        C    0.95044000  0.57829000  0.35690000  0.00000000
C        C    0.64310000  0.42171000  0.04956000  0.00000000
C        C    0.07829000  0.54956000  0.64310000  0.00000000
C        C    0.07829000  0.04956000  0.85690000  0.00000000
C        C    0.95044000  0.64310000  0.42171000  0.00000000
C        C    0.35690000  0.92171000  0.45044000  0.00000000
C        C    0.64310000  0.95044000  0.57829000  0.00000000
C        C    0.45044000  0.07829000  0.64310000  0.00000000
C        C    0.45044000  0.85690000  0.42171000  0.00000000
C        C    0.07829000  0.45044000  0.64310000  0.00000000
C        C    0.85690000  0.45044000  0.57829000  0.00000000
C        C    0.45044000  0.92171000  0.35690000  0.00000000
C        C    0.35690000  0.07829000  0.45044000  0.00000000
C        C    0.85690000  0.57829000  0.45044000  0.00000000
C        C    0.45044000  0.57829000  0.85690000  0.00000000
C        C    0.42171000  0.95044000  0.64310000  0.00000000
C        C    0.85690000  0.04956000  0.07829000  0.00000000
C        C    0.14310000  0.57829000  0.45044000  0.00000000
C        C    0.14310000  0.57829000  0.54956000  0.00000000
C        C    0.57829000  0.14310000  0.54956000  0.00000000
C        C    0.54956000  0.64310000  0.92171000  0.00000000
C        C    0.54956000  0.85690000  0.57829000  0.00000000
C        C    0.35690000  0.07829000  0.54956000  0.00000000
C        C    0.14310000  0.04956000  0.92171000  0.00000000
C        C    0.07829000  0.54956000  0.35690000  0.00000000
C        C    0.85690000  0.45044000  0.42171000  0.00000000
C        C    0.64310000  0.07829000  0.54956000  0.00000000
C        C    0.95044000  0.92171000  0.14310000  0.00000000
C        C    0.42171000  0.45044000  0.85690000  0.00000000
C        C    0.54956000  0.85690000  0.42171000  0.00000000
C        C    0.57829000  0.45044000  0.14310000  0.00000000
C        C    0.95044000  0.14310000  0.92171000  0.00000000
C        C    0.07829000  0.95044000  0.14310000  0.00000000
C        C    0.42171000  0.04956000  0.35690000  0.00000000
C        C    0.04956000  0.35690000  0.57829000  0.00000000
C        C    0.57829000  0.04956000  0.64310000  0.00000000
C        C    0.92171000  0.35690000  0.54956000  0.00000000
C        C    0.92171000  0.45044000  0.35690000  0.00000000
C        C    0.92171000  0.54956000  0.35690000  0.00000000
C        C    0.42171000  0.85690000  0.54956000  0.00000000
C        C    0.57829000  0.14310000  0.45044000  0.00000000
C        C    0.85690000  0.42171000  0.45044000  0.00000000
C        C    0.95044000  0.14310000  0.07829000  0.00000000
C        C    0.04956000  0.42171000  0.35690000  0.00000000
C        C    0.35690000  0.04956000  0.57829000  0.00000000
C        C    0.57829000  0.64310000  0.04956000  0.00000000
C        C    0.45044000  0.42171000  0.14310000  0.00000000
C        C    0.45044000  0.64310000  0.07829000  0.00000000
C        C    0.92171000  0.45044000  0.64310000  0.00000000
C        C    0.57829000  0.54956000  0.14310000  0.00000000
C        C    0.04956000  0.42171000  0.64310000  0.00000000
C        C    0.07829000  0.64310000  0.54956000  0.00000000
C        C    0.54956000  0.14310000  0.57829000  0.00000000
C        C    0.42171000  0.14310000  0.54956000  0.00000000
C        C    0.14310000  0.45044000  0.42171000  0.00000000
C        C    0.42171000  0.85690000  0.45044000  0.00000000
C        C    0.45044000  0.14310000  0.57829000  0.00000000
C        C    0.04956000  0.35690000  0.42171000  0.00000000
C        C    0.14310000  0.95044000  0.07829000  0.00000000
C        C    0.95044000  0.35690000  0.42171000  0.00000000
C        C    0.07829000  0.85690000  0.04956000  0.00000000
C        C    0.95044000  0.57829000  0.64310000  0.00000000
C        C    0.42171000  0.14310000  0.45044000  0.00000000
C        C    0.45044000  0.92171000  0.64310000  0.00000000
C        C    0.07829000  0.35690000  0.45044000  0.00000000
C        C    0.57829000  0.04956000  0.35690000  0.00000000
C        C    0.07829000  0.95044000  0.85690000  0.00000000
C        C    0.45044000  0.57829000  0.14310000  0.00000000
C        C    0.14310000  0.07829000  0.95044000  0.00000000
C        C    0.85690000  0.95044000  0.07829000  0.00000000
C        C    0.14310000  0.42171000  0.54956000  0.00000000
C        C    0.95044000  0.64310000  0.57829000  0.00000000
C        C    0.64310000  0.04956000  0.42171000  0.00000000
C        C    0.45044000  0.64310000  0.92171000  0.00000000
C        C    0.64310000  0.92171000  0.54956000  0.00000000
C        C    0.54956000  0.42171000  0.85690000  0.00000000
C        C    0.07829000  0.04956000  0.14310000  0.00000000
C        C    0.45044000  0.35690000  0.07829000  0.00000000
C        C    0.92171000  0.85690000  0.95044000  0.00000000
C        C    0.45044000  0.35690000  0.92171000  0.00000000
C        C    0.04956000  0.64310000  0.57829000  0.00000000
C        C    0.95044000  0.07829000  0.85690000  0.00000000
C        C    0.57829000  0.35690000  0.04956000  0.00000000
C        C    0.14310000  0.92171000  0.04956000  0.00000000
C        C    0.42171000  0.64310000  0.04956000  0.00000000
C        C    0.92171000  0.64310000  0.45044000  0.00000000
C        C    0.42171000  0.04956000  0.64310000  0.00000000
C        C    0.92171000  0.04956000  0.85690000  0.00000000
C        C    0.54956000  0.57829000  0.14310000  0.00000000
C        C    0.64310000  0.42171000  0.95044000  0.00000000
C        C    0.14310000  0.95044000  0.92171000  0.00000000
C        C    0.04956000  0.14310000  0.07829000  0.00000000
C        C    0.64310000  0.95044000  0.42171000  0.00000000
C        C    0.07829000  0.35690000  0.54956000  0.00000000
C        C    0.57829000  0.64310000  0.95044000  0.00000000
C        C    0.04956000  0.57829000  0.35690000  0.00000000
C        C    0.85690000  0.57829000  0.54956000  0.00000000
C        C    0.04956000  0.85690000  0.92171000  0.00000000
C        C    0.14310000  0.92171000  0.95044000  0.00000000
C        C    0.92171000  0.35690000  0.45044000  0.00000000
C        C    0.92171000  0.54956000  0.64310000  0.00000000
C        C    0.64310000  0.57829000  0.95044000  0.00000000
C        C    0.45044000  0.42171000  0.85690000  0.00000000
C        C    0.35690000  0.42171000  0.04956000  0.00000000
C        C    0.04956000  0.85690000  0.07829000  0.00000000
C        C    0.42171000  0.54956000  0.14310000  0.00000000
C        C    0.57829000  0.45044000  0.85690000  0.00000000
C        C    0.04956000  0.07829000  0.14310000  0.00000000
C        C    0.14310000  0.45044000  0.57829000  0.00000000
C        C    0.14310000  0.54956000  0.42171000  0.00000000
C        C    0.92171000  0.64310000  0.54956000  0.00000000
C        C    0.64310000  0.07829000  0.45044000  0.00000000
C        C    0.35690000  0.54956000  0.92171000  0.00000000
C        C    0.54956000  0.35690000  0.07829000  0.00000000
C        C    0.42171000  0.35690000  0.95044000  0.00000000
C        C    0.95044000  0.07829000  0.14310000  0.00000000
C        C    0.57829000  0.95044000  0.64310000  0.00000000
C        C    0.35690000  0.92171000  0.54956000  0.00000000
C        C    0.92171000  0.95044000  0.14310000  0.00000000
C        C    0.54956000  0.92171000  0.35690000  0.00000000
C        C    0.85690000  0.07829000  0.95044000  0.00000000
C        C    0.92171000  0.14310000  0.95044000  0.00000000
C        C    0.42171000  0.64310000  0.95044000  0.00000000
C        C    0.64310000  0.45044000  0.92171000  0.00000000
C        C    0.64310000  0.57829000  0.04956000  0.00000000
C        C    0.45044000  0.14310000  0.42171000  0.00000000
C        C    0.07829000  0.45044000  0.35690000  0.00000000
C        C    0.04956000  0.92171000  0.85690000  0.00000000
C        C    0.04956000  0.07829000  0.85690000  0.00000000
C        C    0.57829000  0.85690000  0.54956000  0.00000000
C        C    0.14310000  0.42171000  0.45044000  0.00000000
C        C    0.07829000  0.64310000  0.45044000  0.00000000
C        C    0.35690000  0.42171000  0.95044000  0.00000000
C        C    0.95044000  0.85690000  0.92171000  0.00000000
C        C    0.85690000  0.92171000  0.04956000  0.00000000
C        C    0.54956000  0.14310000  0.42171000  0.00000000
C        C    0.35690000  0.95044000  0.57829000  0.00000000
C        C    0.14310000  0.54956000  0.57829000  0.00000000
C        C    0.95044000  0.42171000  0.64310000  0.00000000
C        C    0.64310000  0.04956000  0.57829000  0.00000000
C        C    0.35690000  0.04956000  0.42171000  0.00000000
C        C    0.54956000  0.07829000  0.64310000  0.00000000
C        C    0.14310000  0.07829000  0.04956000  0.00000000
C        C    0.45044000  0.85690000  0.57829000  0.00000000
C        C    0.35690000  0.95044000  0.42171000  0.00000000
C        C    0.35690000  0.57829000  0.04956000  0.00000000
C        C    0.42171000  0.35690000  0.04956000  0.00000000
C        C    0.57829000  0.95044000  0.35690000  0.00000000
C        C    0.57829000  0.54956000  0.85690000  0.00000000
C        C    0.42171000  0.54956000  0.85690000  0.00000000
C        C    0.35690000  0.45044000  0.92171000  0.00000000
C        C    0.42171000  0.95044000  0.35690000  0.00000000
C        C    0.04956000  0.92171000  0.14310000  0.00000000
C        C    0.64310000  0.92171000  0.45044000  0.00000000
C        C    0.35690000  0.54956000  0.07829000  0.00000000
C        C    0.04956000  0.14310000  0.92171000  0.00000000
C        C    0.85690000  0.07829000  0.04956000  0.00000000
C        C    0.54956000  0.07829000  0.35690000  0.00000000
C        C    0.42171000  0.45044000  0.14310000  0.00000000
C        C    0.35690000  0.57829000  0.95044000  0.00000000
C        C    0.64310000  0.54956000  0.07829000  0.00000000
C        C    0.92171000  0.04956000  0.14310000  0.00000000
C        C    0.54956000  0.35690000  0.92171000  0.00000000
C        C    0.57829000  0.35690000  0.95044000  0.00000000
C        C    0.95044000  0.85690000  0.07829000  0.00000000
C        C    0.54956000  0.57829000  0.85690000  0.00000000
C        C    0.85690000  0.42171000  0.54956000  0.00000000
C        C    0.64310000  0.45044000  0.07829000  0.00000000
C        C    0.85690000  0.04956000  0.92171000  0.00000000
C        C    0.85690000  0.92171000  0.95044000  0.00000000
C        C    0.85690000  0.95044000  0.92171000  0.00000000
C        C    0.57829000  0.85690000  0.45044000  0.00000000
C        C    0.54956000  0.92171000  0.64310000  0.00000000
C        C    0.95044000  0.35690000  0.57829000  0.00000000
C        C    0.14310000  0.04956000  0.07829000  0.00000000
C        C    0.04956000  0.64310000  0.42171000  0.00000000
C        C    0.04956000  0.57829000  0.64310000  0.00000000
C        C    0.35690000  0.45044000  0.07829000  0.00000000
C        C    0.07829000  0.14310000  0.04956000  0.00000000
C        C    0.54956000  0.42171000  0.14310000  0.00000000
C        C    0.85690000  0.54956000  0.42171000  0.00000000
C        C    0.54956000  0.64310000  0.07829000  0.00000000
C        C    0.92171000  0.85690000  0.04956000  0.00000000
C        C    0.83560000  0.55679000  0.58556000  0.00000000
C        C    0.44321000  0.08556000  0.33560000  0.00000000
C        C    0.66440000  0.55679000  0.91444000  0.00000000
C        C    0.08556000  0.16440000  0.94321000  0.00000000
C        C    0.94321000  0.41444000  0.33560000  0.00000000
C        C    0.91444000  0.94321000  0.83560000  0.00000000
C        C    0.91444000  0.16440000  0.05679000  0.00000000
C        C    0.08556000  0.83560000  0.94321000  0.00000000
C        C    0.94321000  0.91444000  0.83560000  0.00000000
C        C    0.94321000  0.58556000  0.33560000  0.00000000
C        C    0.66440000  0.41444000  0.05679000  0.00000000
C        C    0.08556000  0.55679000  0.66440000  0.00000000
C        C    0.08556000  0.05679000  0.83560000  0.00000000
C        C    0.94321000  0.66440000  0.41444000  0.00000000
C        C    0.33560000  0.91444000  0.44321000  0.00000000
C        C    0.66440000  0.94321000  0.58556000  0.00000000
C        C    0.44321000  0.08556000  0.66440000  0.00000000
C        C    0.44321000  0.83560000  0.41444000  0.00000000
C        C    0.08556000  0.44321000  0.66440000  0.00000000
C        C    0.83560000  0.44321000  0.58556000  0.00000000
C        C    0.44321000  0.91444000  0.33560000  0.00000000
C        C    0.33560000  0.08556000  0.44321000  0.00000000
C        C    0.83560000  0.58556000  0.44321000  0.00000000
C        C    0.44321000  0.58556000  0.83560000  0.00000000
C        C    0.41444000  0.94321000  0.66440000  0.00000000
C        C    0.83560000  0.05679000  0.08556000  0.00000000
C        C    0.16440000  0.58556000  0.44321000  0.00000000
C        C    0.16440000  0.58556000  0.55679000  0.00000000
C        C    0.58556000  0.16440000  0.55679000  0.00000000
C        C    0.55679000  0.66440000  0.91444000  0.00000000
C        C    0.55679000  0.83560000  0.58556000  0.00000000
C        C    0.33560000  0.08556000  0.55679000  0.00000000
C        C    0.16440000  0.05679000  0.91444000  0.00000000
C        C    0.08556000  0.55679000  0.33560000  0.00000000
C        C    0.83560000  0.44321000  0.41444000  0.00000000
C        C    0.66440000  0.08556000  0.55679000  0.00000000
C        C    0.94321000  0.91444000  0.16440000  0.00000000
C        C    0.41444000  0.44321000  0.83560000  0.00000000
C        C    0.55679000  0.83560000  0.41444000  0.00000000
C        C    0.58556000  0.44321000  0.16440000  0.00000000
C        C    0.94321000  0.16440000  0.91444000  0.00000000
C        C    0.08556000  0.94321000  0.16440000  0.00000000
C        C    0.41444000  0.05679000  0.33560000  0.00000000
C        C    0.05679000  0.33560000  0.58556000  0.00000000
C        C    0.58556000  0.05679000  0.66440000  0.00000000
C        C    0.91444000  0.33560000  0.55679000  0.00000000
C        C    0.91444000  0.44321000  0.33560000  0.00000000
C        C    0.91444000  0.55679000  0.33560000  0.00000000
C        C    0.41444000  0.83560000  0.55679000  0.00000000
C        C    0.58556000  0.16440000  0.44321000  0.00000000
C        C    0.83560000  0.41444000  0.44321000  0.00000000
C        C    0.94321000  0.16440000  0.08556000  0.00000000
C        C    0.05679000  0.41444000  0.33560000  0.00000000
C        C    0.33560000  0.05679000  0.58556000  0.00000000
C        C    0.58556000  0.66440000  0.05679000  0.00000000
C        C    0.44321000  0.41444000  0.16440000  0.00000000
C        C    0.44321000  0.66440000  0.08556000  0.00000000
C        C    0.91444000  0.44321000  0.66440000  0.00000000
C        C    0.58556000  0.55679000  0.16440000  0.00000000
C        C    0.05679000  0.41444000  0.66440000  0.00000000
C        C    0.08556000  0.66440000  0.55679000  0.00000000
C        C    0.55679000  0.16440000  0.58556000  0.00000000
C        C    0.41444000  0.16440000  0.55679000  0.00000000
C        C    0.16440000  0.44321000  0.41444000  0.00000000
C        C    0.41444000  0.83560000  0.44321000  0.00000000
C        C    0.44321000  0.16440000  0.58556000  0.00000000
C        C    0.05679000  0.33560000  0.41444000  0.00000000
C        C    0.16440000  0.94321000  0.08556000  0.00000000
C        C    0.94321000  0.33560000  0.41444000  0.00000000
C        C    0.08556000  0.83560000  0.05679000  0.00000000
C        C    0.94321000  0.58556000  0.66440000  0.00000000
C        C    0.41444000  0.16440000  0.44321000  0.00000000
C        C    0.44321000  0.91444000  0.66440000  0.00000000
C        C    0.08556000  0.33560000  0.44321000  0.00000000
C        C    0.58556000  0.05679000  0.33560000  0.00000000
C        C    0.08556000  0.94321000  0.83560000  0.00000000
C        C    0.44321000  0.58556000  0.16440000  0.00000000
C        C    0.16440000  0.08556000  0.94321000  0.00000000
C        C    0.83560000  0.94321000  0.08556000  0.00000000
C        C    0.16440000  0.41444000  0.55679000  0.00000000
C        C    0.94321000  0.66440000  0.58556000  0.00000000
C        C    0.66440000  0.05679000  0.41444000  0.00000000
C        C    0.44321000  0.66440000  0.91444000  0.00000000
C        C    0.66440000  0.91444000  0.55679000  0.00000000
C        C    0.55679000  0.41444000  0.83560000  0.00000000
C        C    0.08556000  0.05679000  0.16440000  0.00000000
C        C    0.44321000  0.33560000  0.08556000  0.00000000
C        C    0.91444000  0.83560000  0.94321000  0.00000000
C        C    0.44321000  0.33560000  0.91444000  0.00000000
C        C    0.05679000  0.66440000  0.58556000  0.00000000
C        C    0.94321000  0.08556000  0.83560000  0.00000000
C        C    0.58556000  0.33560000  0.05679000  0.00000000
C        C    0.16440000  0.91444000  0.05679000  0.00000000
C        C    0.41444000  0.66440000  0.05679000  0.00000000
C        C    0.91444000  0.66440000  0.44321000  0.00000000
C        C    0.41444000  0.05679000  0.66440000  0.00000000
C        C    0.91444000  0.05679000  0.83560000  0.00000000
C        C    0.55679000  0.58556000  0.16440000  0.00000000
C        C    0.66440000  0.41444000  0.94321000  0.00000000
C        C    0.16440000  0.94321000  0.91444000  0.00000000
C        C    0.05679000  0.16440000  0.08556000  0.00000000
C        C    0.66440000  0.94321000  0.41444000  0.00000000
C        C    0.08556000  0.33560000  0.55679000  0.00000000
C        C    0.58556000  0.66440000  0.94321000  0.00000000
C        C    0.05679000  0.58556000  0.33560000  0.00000000
C        C    0.83560000  0.58556000  0.55679000  0.00000000
C        C    0.05679000  0.83560000  0.91444000  0.00000000
C        C    0.16440000  0.91444000  0.94321000  0.00000000
C        C    0.91444000  0.33560000  0.44321000  0.00000000
C        C    0.91444000  0.55679000  0.66440000  0.00000000
C        C    0.66440000  0.58556000  0.94321000  0.00000000
C        C    0.44321000  0.41444000  0.83560000  0.00000000
C        C    0.33560000  0.41444000  0.05679000  0.00000000
C        C    0.05679000  0.83560000  0.08556000  0.00000000
C        C    0.41444000  0.55679000  0.16440000  0.00000000
C        C    0.58556000  0.44321000  0.83560000  0.00000000
C        C    0.05679000  0.08556000  0.16440000  0.00000000
C        C    0.16440000  0.44321000  0.58556000  0.00000000
C        C    0.16440000  0.55679000  0.41444000  0.00000000
C        C    0.91444000  0.66440000  0.55679000  0.00000000
C        C    0.66440000  0.08556000  0.44321000  0.00000000
C        C    0.33560000  0.55679000  0.91444000  0.00000000
C        C    0.55679000  0.33560000  0.08556000  0.00000000
C        C    0.41444000  0.33560000  0.94321000  0.00000000
C        C    0.94321000  0.08556000  0.16440000  0.00000000
C        C    0.58556000  0.94321000  0.66440000  0.00000000
C        C    0.33560000  0.91444000  0.55679000  0.00000000
C        C    0.91444000  0.94321000  0.16440000  0.00000000
C        C    0.55679000  0.91444000  0.33560000  0.00000000
C        C    0.83560000  0.08556000  0.94321000  0.00000000
C        C    0.91444000  0.16440000  0.94321000  0.00000000
C        C    0.41444000  0.66440000  0.94321000  0.00000000
C        C    0.66440000  0.44321000  0.91444000  0.00000000
C        C    0.66440000  0.58556000  0.05679000  0.00000000
C        C    0.44321000  0.16440000  0.41444000  0.00000000
C        C    0.08556000  0.44321000  0.33560000  0.00000000
C        C    0.05679000  0.91444000  0.83560000  0.00000000
C        C    0.05679000  0.08556000  0.83560000  0.00000000
C        C    0.58556000  0.83560000  0.55679000  0.00000000
C        C    0.16440000  0.41444000  0.44321000  0.00000000
C        C    0.08556000  0.66440000  0.44321000  0.00000000
C        C    0.33560000  0.41444000  0.94321000  0.00000000
C        C    0.94321000  0.83560000  0.91444000  0.00000000
C        C    0.83560000  0.91444000  0.05679000  0.00000000
C        C    0.55679000  0.16440000  0.41444000  0.00000000
C        C    0.33560000  0.94321000  0.58556000  0.00000000
C        C    0.16440000  0.55679000  0.58556000  0.00000000
C        C    0.94321000  0.41444000  0.66440000  0.00000000
C        C    0.66440000  0.05679000  0.58556000  0.00000000
C        C    0.33560000  0.05679000  0.41444000  0.00000000
C        C    0.55679000  0.08556000  0.66440000  0.00000000
C        C    0.16440000  0.08556000  0.05679000  0.00000000
C        C    0.44321000  0.83560000  0.58556000  0.00000000
C        C    0.33560000  0.94321000  0.41444000  0.00000000
C        C    0.33560000  0.58556000  0.05679000  0.00000000
C        C    0.41444000  0.33560000  0.05679000  0.00000000
C        C    0.58556000  0.94321000  0.33560000  0.00000000
C        C    0.58556000  0.55679000  0.83560000  0.00000000
C        C    0.41444000  0.55679000  0.83560000  0.00000000
C        C    0.33560000  0.44321000  0.91444000  0.00000000
C        C    0.41444000  0.94321000  0.33560000  0.00000000
C        C    0.05679000  0.91444000  0.16440000  0.00000000
C        C    0.66440000  0.91444000  0.44321000  0.00000000
C        C    0.33560000  0.55679000  0.08556000  0.00000000
C        C    0.05679000  0.16440000  0.91444000  0.00000000
C        C    0.83560000  0.08556000  0.05679000  0.00000000
C        C    0.55679000  0.08556000  0.33560000  0.00000000
C        C    0.41444000  0.44321000  0.16440000  0.00000000
C        C    0.33560000  0.58556000  0.94321000  0.00000000
C        C    0.66440000  0.55679000  0.08556000  0.00000000
C        C    0.91444000  0.05679000  0.16440000  0.00000000
C        C    0.55679000  0.33560000  0.91444000  0.00000000
C        C    0.58556000  0.33560000  0.94321000  0.00000000
C        C    0.94321000  0.83560000  0.08556000  0.00000000
C        C    0.55679000  0.58556000  0.83560000  0.00000000
C        C    0.83560000  0.41444000  0.55679000  0.00000000
C        C    0.66440000  0.44321000  0.08556000  0.00000000
C        C    0.83560000  0.05679000  0.91444000  0.00000000
C        C    0.83560000  0.91444000  0.94321000  0.00000000
C        C    0.83560000  0.94321000  0.91444000  0.00000000
C        C    0.58556000  0.83560000  0.44321000  0.00000000
C        C    0.55679000  0.91444000  0.66440000  0.00000000
C        C    0.94321000  0.33560000  0.58556000  0.00000000
C        C    0.16440000  0.05679000  0.08556000  0.00000000
C        C    0.05679000  0.66440000  0.41444000  0.00000000
C        C    0.05679000  0.58556000  0.66440000  0.00000000
C        C    0.33560000  0.44321000  0.08556000  0.00000000
C        C    0.08556000  0.16440000  0.05679000  0.00000000
C        C    0.55679000  0.41444000  0.16440000  0.00000000
C        C    0.83560000  0.55679000  0.41444000  0.00000000
C        C    0.55679000  0.66440000  0.08556000  0.00000000
C        C    0.91444000  0.83560000  0.05679000  0.00000000
H        H    0.82850000  0.54960000  0.59800000  0.00000000
H        H    0.45040000  0.09800000  0.32850000  0.00000000
H        H    0.67150000  0.54960000  0.90200000  0.00000000
H        H    0.09800000  0.17150000  0.95040000  0.00000000
H        H    0.95040000  0.40200000  0.32850000  0.00000000
H        H    0.90200000  0.95040000  0.82850000  0.00000000
H        H    0.90200000  0.17150000  0.04960000  0.00000000
H        H    0.09800000  0.82850000  0.95040000  0.00000000
H        H    0.95040000  0.90200000  0.82850000  0.00000000
H        H    0.95040000  0.59800000  0.32850000  0.00000000
H        H    0.67150000  0.40200000  0.04960000  0.00000000
H        H    0.09800000  0.54960000  0.67150000  0.00000000
H        H    0.09800000  0.04960000  0.82850000  0.00000000
H        H    0.95040000  0.67150000  0.40200000  0.00000000
H        H    0.32850000  0.90200000  0.45040000  0.00000000
H        H    0.67150000  0.95040000  0.59800000  0.00000000
H        H    0.45040000  0.09800000  0.67150000  0.00000000
H        H    0.45040000  0.82850000  0.40200000  0.00000000
H        H    0.09800000  0.45040000  0.67150000  0.00000000
H        H    0.82850000  0.45040000  0.59800000  0.00000000
H        H    0.45040000  0.90200000  0.32850000  0.00000000
H        H    0.32850000  0.09800000  0.45040000  0.00000000
H        H    0.82850000  0.59800000  0.45040000  0.00000000
H        H    0.45040000  0.59800000  0.82850000  0.00000000
H        H    0.40200000  0.95040000  0.67150000  0.00000000
H        H    0.82850000  0.04960000  0.09800000  0.00000000
H        H    0.17150000  0.59800000  0.45040000  0.00000000
H        H    0.17150000  0.59800000  0.54960000  0.00000000
H        H    0.59800000  0.17150000  0.54960000  0.00000000
H        H    0.54960000  0.67150000  0.90200000  0.00000000
H        H    0.54960000  0.82850000  0.59800000  0.00000000
H        H    0.32850000  0.09800000  0.54960000  0.00000000
H        H    0.17150000  0.04960000  0.90200000  0.00000000
H        H    0.09800000  0.54960000  0.32850000  0.00000000
H        H    0.82850000  0.45040000  0.40200000  0.00000000
H        H    0.67150000  0.09800000  0.54960000  0.00000000
H        H    0.95040000  0.90200000  0.17150000  0.00000000
H        H    0.40200000  0.45040000  0.82850000  0.00000000
H        H    0.54960000  0.82850000  0.40200000  0.00000000
H        H    0.59800000  0.45040000  0.17150000  0.00000000
H        H    0.95040000  0.17150000  0.90200000  0.00000000
H        H    0.09800000  0.95040000  0.17150000  0.00000000
H        H    0.40200000  0.04960000  0.32850000  0.00000000
H        H    0.04960000  0.32850000  0.59800000  0.00000000
H        H    0.59800000  0.04960000  0.67150000  0.00000000
H        H    0.90200000  0.32850000  0.54960000  0.00000000
H        H    0.90200000  0.45040000  0.32850000  0.00000000
H        H    0.90200000  0.54960000  0.32850000  0.00000000
H        H    0.40200000  0.82850000  0.54960000  0.00000000
H        H    0.59800000  0.17150000  0.45040000  0.00000000
H        H    0.82850000  0.40200000  0.45040000  0.00000000
H        H    0.95040000  0.17150000  0.09800000  0.00000000
H        H    0.04960000  0.40200000  0.32850000  0.00000000
H        H    0.32850000  0.04960000  0.59800000  0.00000000
H        H    0.59800000  0.67150000  0.04960000  0.00000000
H        H    0.45040000  0.40200000  0.17150000  0.00000000
H        H    0.45040000  0.67150000  0.09800000  0.00000000
H        H    0.90200000  0.45040000  0.67150000  0.00000000
H        H    0.59800000  0.54960000  0.17150000  0.00000000
H        H    0.04960000  0.40200000  0.67150000  0.00000000
H        H    0.09800000  0.67150000  0.54960000  0.00000000
H        H    0.54960000  0.17150000  0.59800000  0.00000000
H        H    0.40200000  0.17150000  0.54960000  0.00000000
H        H    0.17150000  0.45040000  0.40200000  0.00000000
H        H    0.40200000  0.82850000  0.45040000  0.00000000
H        H    0.45040000  0.17150000  0.59800000  0.00000000
H        H    0.04960000  0.32850000  0.40200000  0.00000000
H        H    0.17150000  0.95040000  0.09800000  0.00000000
H        H    0.95040000  0.32850000  0.40200000  0.00000000
H        H    0.09800000  0.82850000  0.04960000  0.00000000
H        H    0.95040000  0.59800000  0.67150000  0.00000000
H        H    0.40200000  0.17150000  0.45040000  0.00000000
H        H    0.45040000  0.90200000  0.67150000  0.00000000
H        H    0.09800000  0.32850000  0.45040000  0.00000000
H        H    0.59800000  0.04960000  0.32850000  0.00000000
H        H    0.09800000  0.95040000  0.82850000  0.00000000
H        H    0.45040000  0.59800000  0.17150000  0.00000000
H        H    0.17150000  0.09800000  0.95040000  0.00000000
H        H    0.82850000  0.95040000  0.09800000  0.00000000
H        H    0.17150000  0.40200000  0.54960000  0.00000000
H        H    0.95040000  0.67150000  0.59800000  0.00000000
H        H    0.67150000  0.04960000  0.40200000  0.00000000
H        H    0.45040000  0.67150000  0.90200000  0.00000000
H        H    0.67150000  0.90200000  0.54960000  0.00000000
H        H    0.54960000  0.40200000  0.82850000  0.00000000
H        H    0.09800000  0.04960000  0.17150000  0.00000000
H        H    0.45040000  0.32850000  0.09800000  0.00000000
H        H    0.90200000  0.82850000  0.95040000  0.00000000
H        H    0.45040000  0.32850000  0.90200000  0.00000000
H        H    0.04960000  0.67150000  0.59800000  0.00000000
H        H    0.95040000  0.09800000  0.82850000  0.00000000
H        H    0.59800000  0.32850000  0.04960000  0.00000000
H        H    0.17150000  0.90200000  0.04960000  0.00000000
H        H    0.40200000  0.67150000  0.04960000  0.00000000
H        H    0.90200000  0.67150000  0.45040000  0.00000000
H        H    0.40200000  0.04960000  0.67150000  0.00000000
H        H    0.90200000  0.04960000  0.82850000  0.00000000
H        H    0.54960000  0.59800000  0.17150000  0.00000000
H        H    0.67150000  0.40200000  0.95040000  0.00000000
H        H    0.17150000  0.95040000  0.90200000  0.00000000
H        H    0.04960000  0.17150000  0.09800000  0.00000000
H        H    0.67150000  0.95040000  0.40200000  0.00000000
H        H    0.09800000  0.32850000  0.54960000  0.00000000
H        H    0.59800000  0.67150000  0.95040000  0.00000000
H        H    0.04960000  0.59800000  0.32850000  0.00000000
H        H    0.82850000  0.59800000  0.54960000  0.00000000
H        H    0.04960000  0.82850000  0.90200000  0.00000000
H        H    0.17150000  0.90200000  0.95040000  0.00000000
H        H    0.90200000  0.32850000  0.45040000  0.00000000
H        H    0.90200000  0.54960000  0.67150000  0.00000000
H        H    0.67150000  0.59800000  0.95040000  0.00000000
H        H    0.45040000  0.40200000  0.82850000  0.00000000
H        H    0.32850000  0.40200000  0.04960000  0.00000000
H        H    0.04960000  0.82850000  0.09800000  0.00000000
H        H    0.40200000  0.54960000  0.17150000  0.00000000
H        H    0.59800000  0.45040000  0.82850000  0.00000000
H        H    0.04960000  0.09800000  0.17150000  0.00000000
H        H    0.17150000  0.45040000  0.59800000  0.00000000
H        H    0.17150000  0.54960000  0.40200000  0.00000000
H        H    0.90200000  0.67150000  0.54960000  0.00000000
H        H    0.67150000  0.09800000  0.45040000  0.00000000
H        H    0.32850000  0.54960000  0.90200000  0.00000000
H        H    0.54960000  0.32850000  0.09800000  0.00000000
H        H    0.40200000  0.32850000  0.95040000  0.00000000
H        H    0.95040000  0.09800000  0.17150000  0.00000000
H        H    0.59800000  0.95040000  0.67150000  0.00000000
H        H    0.32850000  0.90200000  0.54960000  0.00000000
H        H    0.90200000  0.95040000  0.17150000  0.00000000
H        H    0.54960000  0.90200000  0.32850000  0.00000000
H        H    0.82850000  0.09800000  0.95040000  0.00000000
H        H    0.90200000  0.17150000  0.95040000  0.00000000
H        H    0.40200000  0.67150000  0.95040000  0.00000000
H        H    0.67150000  0.45040000  0.90200000  0.00000000
H        H    0.67150000  0.59800000  0.04960000  0.00000000
H        H    0.45040000  0.17150000  0.40200000  0.00000000
H        H    0.09800000  0.45040000  0.32850000  0.00000000
H        H    0.04960000  0.90200000  0.82850000  0.00000000
H        H    0.04960000  0.09800000  0.82850000  0.00000000
H        H    0.59800000  0.82850000  0.54960000  0.00000000
H        H    0.17150000  0.40200000  0.45040000  0.00000000
H        H    0.09800000  0.67150000  0.45040000  0.00000000
H        H    0.32850000  0.40200000  0.95040000  0.00000000
H        H    0.95040000  0.82850000  0.90200000  0.00000000
H        H    0.82850000  0.90200000  0.04960000  0.00000000
H        H    0.54960000  0.17150000  0.40200000  0.00000000
H        H    0.32850000  0.95040000  0.59800000  0.00000000
H        H    0.17150000  0.54960000  0.59800000  0.00000000
H        H    0.95040000  0.40200000  0.67150000  0.00000000
H        H    0.67150000  0.04960000  0.59800000  0.00000000
H        H    0.32850000  0.04960000  0.40200000  0.00000000
H        H    0.54960000  0.09800000  0.67150000  0.00000000
H        H    0.17150000  0.09800000  0.04960000  0.00000000
H        H    0.45040000  0.82850000  0.59800000  0.00000000
H        H    0.32850000  0.95040000  0.40200000  0.00000000
H        H    0.32850000  0.59800000  0.04960000  0.00000000
H        H    0.40200000  0.32850000  0.04960000  0.00000000
H        H    0.59800000  0.95040000  0.32850000  0.00000000
H        H    0.59800000  0.54960000  0.82850000  0.00000000
H        H    0.40200000  0.54960000  0.82850000  0.00000000
H        H    0.32850000  0.45040000  0.90200000  0.00000000
H        H    0.40200000  0.95040000  0.32850000  0.00000000
H        H    0.04960000  0.90200000  0.17150000  0.00000000
H        H    0.67150000  0.90200000  0.45040000  0.00000000
H        H    0.32850000  0.54960000  0.09800000  0.00000000
H        H    0.04960000  0.17150000  0.90200000  0.00000000
H        H    0.82850000  0.09800000  0.04960000  0.00000000
H        H    0.54960000  0.09800000  0.32850000  0.00000000
H        H    0.40200000  0.45040000  0.17150000  0.00000000
H        H    0.32850000  0.59800000  0.95040000  0.00000000
H        H    0.67150000  0.54960000  0.09800000  0.00000000
H        H    0.90200000  0.04960000  0.17150000  0.00000000
H        H    0.54960000  0.32850000  0.90200000  0.00000000
H        H    0.59800000  0.32850000  0.95040000  0.00000000
H        H    0.95040000  0.82850000  0.09800000  0.00000000
H        H    0.54960000  0.59800000  0.82850000  0.00000000
H        H    0.82850000  0.40200000  0.54960000  0.00000000
H        H    0.67150000  0.45040000  0.09800000  0.00000000
H        H    0.82850000  0.04960000  0.90200000  0.00000000
H        H    0.82850000  0.90200000  0.95040000  0.00000000
H        H    0.82850000  0.95040000  0.90200000  0.00000000
H        H    0.59800000  0.82850000  0.45040000  0.00000000
H        H    0.54960000  0.90200000  0.67150000  0.00000000
H        H    0.95040000  0.32850000  0.59800000  0.00000000
H        H    0.17150000  0.04960000  0.09800000  0.00000000
H        H    0.04960000  0.67150000  0.40200000  0.00000000
H        H    0.04960000  0.59800000  0.67150000  0.00000000
H        H    0.32850000  0.45040000  0.09800000  0.00000000
H        H    0.09800000  0.17150000  0.04960000  0.00000000
H        H    0.54960000  0.40200000  0.17150000  0.00000000
H        H    0.82850000  0.54960000  0.40200000  0.00000000
H        H    0.54960000  0.67150000  0.09800000  0.00000000
H        H    0.90200000  0.82850000  0.04960000  0.00000000
C        C    0.92544000  0.92544000  0.82490000  0.00000000
C        C    0.42544000  0.07456000  0.32490000  0.00000000
C        C    0.92544000  0.42544000  0.32490000  0.00000000
C        C    0.92544000  0.57456000  0.32490000  0.00000000
C        C    0.82490000  0.42544000  0.42544000  0.00000000
C        C    0.92544000  0.17510000  0.07456000  0.00000000
C        C    0.32490000  0.07456000  0.57456000  0.00000000
C        C    0.07456000  0.42544000  0.67510000  0.00000000
C        C    0.57456000  0.17510000  0.57456000  0.00000000
C        C    0.42544000  0.82490000  0.42544000  0.00000000
C        C    0.42544000  0.17510000  0.57456000  0.00000000
C        C    0.42544000  0.92544000  0.67510000  0.00000000
C        C    0.07456000  0.32490000  0.42544000  0.00000000
C        C    0.17510000  0.07456000  0.92544000  0.00000000
C        C    0.67510000  0.92544000  0.57456000  0.00000000
C        C    0.07456000  0.67510000  0.57456000  0.00000000
C        C    0.17510000  0.92544000  0.07456000  0.00000000
C        C    0.42544000  0.67510000  0.07456000  0.00000000
C        C    0.92544000  0.67510000  0.42544000  0.00000000
C        C    0.42544000  0.07456000  0.67510000  0.00000000
C        C    0.92544000  0.07456000  0.82490000  0.00000000
C        C    0.57456000  0.57456000  0.17510000  0.00000000
C        C    0.07456000  0.32490000  0.57456000  0.00000000
C        C    0.57456000  0.67510000  0.92544000  0.00000000
C        C    0.07456000  0.57456000  0.32490000  0.00000000
C        C    0.82490000  0.57456000  0.57456000  0.00000000
C        C    0.07456000  0.82490000  0.92544000  0.00000000
C        C    0.17510000  0.92544000  0.92544000  0.00000000
C        C    0.92544000  0.32490000  0.42544000  0.00000000
C        C    0.92544000  0.57456000  0.67510000  0.00000000
C        C    0.67510000  0.57456000  0.92544000  0.00000000
C        C    0.42544000  0.42544000  0.82490000  0.00000000
C        C    0.07456000  0.82490000  0.07456000  0.00000000
C        C    0.42544000  0.57456000  0.17510000  0.00000000
C        C    0.57456000  0.42544000  0.82490000  0.00000000
C        C    0.07456000  0.07456000  0.17510000  0.00000000
C        C    0.17510000  0.42544000  0.57456000  0.00000000
C        C    0.17510000  0.57456000  0.42544000  0.00000000
C        C    0.92544000  0.67510000  0.57456000  0.00000000
C        C    0.67510000  0.07456000  0.42544000  0.00000000
C        C    0.57456000  0.32490000  0.07456000  0.00000000
C        C    0.42544000  0.32490000  0.92544000  0.00000000
C        C    0.92544000  0.92544000  0.17510000  0.00000000
C        C    0.92544000  0.17510000  0.92544000  0.00000000
C        C    0.42544000  0.67510000  0.92544000  0.00000000
C        C    0.67510000  0.42544000  0.92544000  0.00000000
C        C    0.42544000  0.17510000  0.42544000  0.00000000
C        C    0.07456000  0.42544000  0.32490000  0.00000000
C        C    0.07456000  0.92544000  0.82490000  0.00000000
C        C    0.07456000  0.07456000  0.82490000  0.00000000
C        C    0.57456000  0.82490000  0.57456000  0.00000000
C        C    0.17510000  0.42544000  0.42544000  0.00000000
C        C    0.92544000  0.82490000  0.92544000  0.00000000
C        C    0.82490000  0.92544000  0.07456000  0.00000000
C        C    0.57456000  0.17510000  0.42544000  0.00000000
C        C    0.32490000  0.92544000  0.57456000  0.00000000
C        C    0.17510000  0.57456000  0.57456000  0.00000000
C        C    0.92544000  0.42544000  0.67510000  0.00000000
C        C    0.67510000  0.07456000  0.57456000  0.00000000
C        C    0.32490000  0.07456000  0.42544000  0.00000000
C        C    0.57456000  0.07456000  0.67510000  0.00000000
C        C    0.42544000  0.82490000  0.57456000  0.00000000
C        C    0.32490000  0.92544000  0.42544000  0.00000000
C        C    0.42544000  0.32490000  0.07456000  0.00000000
C        C    0.57456000  0.92544000  0.32490000  0.00000000
C        C    0.42544000  0.57456000  0.82490000  0.00000000
C        C    0.32490000  0.42544000  0.92544000  0.00000000
C        C    0.42544000  0.92544000  0.32490000  0.00000000
C        C    0.07456000  0.92544000  0.17510000  0.00000000
C        C    0.67510000  0.92544000  0.42544000  0.00000000
C        C    0.32490000  0.57456000  0.07456000  0.00000000
C        C    0.07456000  0.17510000  0.92544000  0.00000000
C        C    0.82490000  0.07456000  0.07456000  0.00000000
C        C    0.57456000  0.07456000  0.32490000  0.00000000
C        C    0.42544000  0.42544000  0.17510000  0.00000000
C        C    0.32490000  0.57456000  0.92544000  0.00000000
C        C    0.67510000  0.57456000  0.07456000  0.00000000
C        C    0.92544000  0.07456000  0.17510000  0.00000000
C        C    0.57456000  0.32490000  0.92544000  0.00000000
C        C    0.57456000  0.57456000  0.82490000  0.00000000
C        C    0.82490000  0.42544000  0.57456000  0.00000000
C        C    0.67510000  0.42544000  0.07456000  0.00000000
C        C    0.82490000  0.07456000  0.92544000  0.00000000
C        C    0.82490000  0.92544000  0.92544000  0.00000000
C        C    0.57456000  0.82490000  0.42544000  0.00000000
C        C    0.57456000  0.92544000  0.67510000  0.00000000
C        C    0.92544000  0.32490000  0.57456000  0.00000000
C        C    0.17510000  0.07456000  0.07456000  0.00000000
C        C    0.07456000  0.67510000  0.42544000  0.00000000
C        C    0.07456000  0.57456000  0.67510000  0.00000000
C        C    0.32490000  0.42544000  0.07456000  0.00000000
C        C    0.07456000  0.17510000  0.07456000  0.00000000
C        C    0.57456000  0.42544000  0.17510000  0.00000000
C        C    0.82490000  0.57456000  0.42544000  0.00000000
C        C    0.57456000  0.67510000  0.07456000  0.00000000
C        C    0.92544000  0.82490000  0.07456000  0.00000000
C        C    0.91800000  0.91800000  0.80310000  0.00000000
C        C    0.41800000  0.08200000  0.30310000  0.00000000
C        C    0.91800000  0.41800000  0.30310000  0.00000000
C        C    0.91800000  0.58200000  0.30310000  0.00000000
C        C    0.80310000  0.41800000  0.41800000  0.00000000
C        C    0.91800000  0.19690000  0.08200000  0.00000000
C        C    0.30310000  0.08200000  0.58200000  0.00000000
C        C    0.08200000  0.41800000  0.69690000  0.00000000
C        C    0.58200000  0.19690000  0.58200000  0.00000000
C        C    0.41800000  0.80310000  0.41800000  0.00000000
C        C    0.41800000  0.19690000  0.58200000  0.00000000
C        C    0.41800000  0.91800000  0.69690000  0.00000000
C        C    0.08200000  0.30310000  0.41800000  0.00000000
C        C    0.19690000  0.08200000  0.91800000  0.00000000
C        C    0.69690000  0.91800000  0.58200000  0.00000000
C        C    0.08200000  0.69690000  0.58200000  0.00000000
C        C    0.19690000  0.91800000  0.08200000  0.00000000
C        C    0.41800000  0.69690000  0.08200000  0.00000000
C        C    0.91800000  0.69690000  0.41800000  0.00000000
C        C    0.41800000  0.08200000  0.69690000  0.00000000
C        C    0.91800000  0.08200000  0.80310000  0.00000000
C        C    0.58200000  0.58200000  0.19690000  0.00000000
C        C    0.08200000  0.30310000  0.58200000  0.00000000
C        C    0.58200000  0.69690000  0.91800000  0.00000000
C        C    0.08200000  0.58200000  0.30310000  0.00000000
C        C    0.80310000  0.58200000  0.58200000  0.00000000
C        C    0.08200000  0.80310000  0.91800000  0.00000000
C        C    0.19690000  0.91800000  0.91800000  0.00000000
C        C    0.91800000  0.30310000  0.41800000  0.00000000
C        C    0.91800000  0.58200000  0.69690000  0.00000000
C        C    0.69690000  0.58200000  0.91800000  0.00000000
C        C    0.41800000  0.41800000  0.80310000  0.00000000
C        C    0.08200000  0.80310000  0.08200000  0.00000000
C        C    0.41800000  0.58200000  0.19690000  0.00000000
C        C    0.58200000  0.41800000  0.80310000  0.00000000
C        C    0.08200000  0.08200000  0.19690000  0.00000000
C        C    0.19690000  0.41800000  0.58200000  0.00000000
C        C    0.19690000  0.58200000  0.41800000  0.00000000
C        C    0.91800000  0.69690000  0.58200000  0.00000000
C        C    0.69690000  0.08200000  0.41800000  0.00000000
C        C    0.58200000  0.30310000  0.08200000  0.00000000
C        C    0.41800000  0.30310000  0.91800000  0.00000000
C        C    0.91800000  0.91800000  0.19690000  0.00000000
C        C    0.91800000  0.19690000  0.91800000  0.00000000
C        C    0.41800000  0.69690000  0.91800000  0.00000000
C        C    0.69690000  0.41800000  0.91800000  0.00000000
C        C    0.41800000  0.19690000  0.41800000  0.00000000
C        C    0.08200000  0.41800000  0.30310000  0.00000000
C        C    0.08200000  0.91800000  0.80310000  0.00000000
C        C    0.08200000  0.08200000  0.80310000  0.00000000
C        C    0.58200000  0.80310000  0.58200000  0.00000000
C        C    0.19690000  0.41800000  0.41800000  0.00000000
C        C    0.91800000  0.80310000  0.91800000  0.00000000
C        C    0.80310000  0.91800000  0.08200000  0.00000000
C        C    0.58200000  0.19690000  0.41800000  0.00000000
C        C    0.30310000  0.91800000  0.58200000  0.00000000
C        C    0.19690000  0.58200000  0.58200000  0.00000000
C        C    0.91800000  0.41800000  0.69690000  0.00000000
C        C    0.69690000  0.08200000  0.58200000  0.00000000
C        C    0.30310000  0.08200000  0.41800000  0.00000000
C        C    0.58200000  0.08200000  0.69690000  0.00000000
C        C    0.41800000  0.80310000  0.58200000  0.00000000
C        C    0.30310000  0.91800000  0.41800000  0.00000000
C        C    0.41800000  0.30310000  0.08200000  0.00000000
C        C    0.58200000  0.91800000  0.30310000  0.00000000
C        C    0.41800000  0.58200000  0.80310000  0.00000000
C        C    0.30310000  0.41800000  0.91800000  0.00000000
C        C    0.41800000  0.91800000  0.30310000  0.00000000
C        C    0.08200000  0.91800000  0.19690000  0.00000000
C        C    0.69690000  0.91800000  0.41800000  0.00000000
C        C    0.30310000  0.58200000  0.08200000  0.00000000
C        C    0.08200000  0.19690000  0.91800000  0.00000000
C        C    0.80310000  0.08200000  0.08200000  0.00000000
C        C    0.58200000  0.08200000  0.30310000  0.00000000
C        C    0.41800000  0.41800000  0.19690000  0.00000000
C        C    0.30310000  0.58200000  0.91800000  0.00000000
C        C    0.69690000  0.58200000  0.08200000  0.00000000
C        C    0.91800000  0.08200000  0.19690000  0.00000000
C        C    0.58200000  0.30310000  0.91800000  0.00000000
C        C    0.58200000  0.58200000  0.80310000  0.00000000
C        C    0.80310000  0.41800000  0.58200000  0.00000000
C        C    0.69690000  0.41800000  0.08200000  0.00000000
C        C    0.80310000  0.08200000  0.91800000  0.00000000
C        C    0.80310000  0.91800000  0.91800000  0.00000000
C        C    0.58200000  0.80310000  0.41800000  0.00000000
C        C    0.58200000  0.91800000  0.69690000  0.00000000
C        C    0.91800000  0.30310000  0.58200000  0.00000000
C        C    0.19690000  0.08200000  0.08200000  0.00000000
C        C    0.08200000  0.69690000  0.41800000  0.00000000
C        C    0.08200000  0.58200000  0.69690000  0.00000000
C        C    0.30310000  0.41800000  0.08200000  0.00000000
C        C    0.08200000  0.19690000  0.08200000  0.00000000
C        C    0.58200000  0.41800000  0.19690000  0.00000000
C        C    0.80310000  0.58200000  0.41800000  0.00000000
C        C    0.58200000  0.69690000  0.08200000  0.00000000
C        C    0.91800000  0.80310000  0.08200000  0.00000000
C        C    0.91290000  0.91290000  0.78510000  0.00000000
C        C    0.41290000  0.08710000  0.28510000  0.00000000
C        C    0.91290000  0.41290000  0.28510000  0.00000000
C        C    0.91290000  0.58710000  0.28510000  0.00000000
C        C    0.78510000  0.41290000  0.41290000  0.00000000
C        C    0.91290000  0.21490000  0.08710000  0.00000000
C        C    0.28510000  0.08710000  0.58710000  0.00000000
C        C    0.08710000  0.41290000  0.71490000  0.00000000
C        C    0.58710000  0.21490000  0.58710000  0.00000000
C        C    0.41290000  0.78510000  0.41290000  0.00000000
C        C    0.41290000  0.21490000  0.58710000  0.00000000
C        C    0.41290000  0.91290000  0.71490000  0.00000000
C        C    0.08710000  0.28510000  0.41290000  0.00000000
C        C    0.21490000  0.08710000  0.91290000  0.00000000
C        C    0.71490000  0.91290000  0.58710000  0.00000000
C        C    0.08710000  0.71490000  0.58710000  0.00000000
C        C    0.21490000  0.91290000  0.08710000  0.00000000
C        C    0.41290000  0.71490000  0.08710000  0.00000000
C        C    0.91290000  0.71490000  0.41290000  0.00000000
C        C    0.41290000  0.08710000  0.71490000  0.00000000
C        C    0.91290000  0.08710000  0.78510000  0.00000000
C        C    0.58710000  0.58710000  0.21490000  0.00000000
C        C    0.08710000  0.28510000  0.58710000  0.00000000
C        C    0.58710000  0.71490000  0.91290000  0.00000000
C        C    0.08710000  0.58710000  0.28510000  0.00000000
C        C    0.78510000  0.58710000  0.58710000  0.00000000
C        C    0.08710000  0.78510000  0.91290000  0.00000000
C        C    0.21490000  0.91290000  0.91290000  0.00000000
C        C    0.91290000  0.28510000  0.41290000  0.00000000
C        C    0.91290000  0.58710000  0.71490000  0.00000000
C        C    0.71490000  0.58710000  0.91290000  0.00000000
C        C    0.41290000  0.41290000  0.78510000  0.00000000
C        C    0.08710000  0.78510000  0.08710000  0.00000000
C        C    0.41290000  0.58710000  0.21490000  0.00000000
C        C    0.58710000  0.41290000  0.78510000  0.00000000
C        C    0.08710000  0.08710000  0.21490000  0.00000000
C        C    0.21490000  0.41290000  0.58710000  0.00000000
C        C    0.21490000  0.58710000  0.41290000  0.00000000
C        C    0.91290000  0.71490000  0.58710000  0.00000000
C        C    0.71490000  0.08710000  0.41290000  0.00000000
C        C    0.58710000  0.28510000  0.08710000  0.00000000
C        C    0.41290000  0.28510000  0.91290000  0.00000000
C        C    0.91290000  0.91290000  0.21490000  0.00000000
C        C    0.91290000  0.21490000  0.91290000  0.00000000
C        C    0.41290000  0.71490000  0.91290000  0.00000000
C        C    0.71490000  0.41290000  0.91290000  0.00000000
C        C    0.41290000  0.21490000  0.41290000  0.00000000
C        C    0.08710000  0.41290000  0.28510000  0.00000000
C        C    0.08710000  0.91290000  0.78510000  0.00000000
C        C    0.08710000  0.08710000  0.78510000  0.00000000
C        C    0.58710000  0.78510000  0.58710000  0.00000000
C        C    0.21490000  0.41290000  0.41290000  0.00000000
C        C    0.91290000  0.78510000  0.91290000  0.00000000
C        C    0.78510000  0.91290000  0.08710000  0.00000000
C        C    0.58710000  0.21490000  0.41290000  0.00000000
C        C    0.28510000  0.91290000  0.58710000  0.00000000
C        C    0.21490000  0.58710000  0.58710000  0.00000000
C        C    0.91290000  0.41290000  0.71490000  0.00000000
C        C    0.71490000  0.08710000  0.58710000  0.00000000
C        C    0.28510000  0.08710000  0.41290000  0.00000000
C        C    0.58710000  0.08710000  0.71490000  0.00000000
C        C    0.41290000  0.78510000  0.58710000  0.00000000
C        C    0.28510000  0.91290000  0.41290000  0.00000000
C        C    0.41290000  0.28510000  0.08710000  0.00000000
C        C    0.58710000  0.91290000  0.28510000  0.00000000
C        C    0.41290000  0.58710000  0.78510000  0.00000000
C        C    0.28510000  0.41290000  0.91290000  0.00000000
C        C    0.41290000  0.91290000  0.28510000  0.00000000
C        C    0.08710000  0.91290000  0.21490000  0.00000000
C        C    0.71490000  0.91290000  0.41290000  0.00000000
C        C    0.28510000  0.58710000  0.08710000  0.00000000
C        C    0.08710000  0.21490000  0.91290000  0.00000000
C        C    0.78510000  0.08710000  0.08710000  0.00000000
C        C    0.58710000  0.08710000  0.28510000  0.00000000
C        C    0.41290000  0.41290000  0.21490000  0.00000000
C        C    0.28510000  0.58710000  0.91290000  0.00000000
C        C    0.71490000  0.58710000  0.08710000  0.00000000
C        C    0.91290000  0.08710000  0.21490000  0.00000000
C        C    0.58710000  0.28510000  0.91290000  0.00000000
C        C    0.58710000  0.58710000  0.78510000  0.00000000
C        C    0.78510000  0.41290000  0.58710000  0.00000000
C        C    0.71490000  0.41290000  0.08710000  0.00000000
C        C    0.78510000  0.08710000  0.91290000  0.00000000
C        C    0.78510000  0.91290000  0.91290000  0.00000000
C        C    0.58710000  0.78510000  0.41290000  0.00000000
C        C    0.58710000  0.91290000  0.71490000  0.00000000
C        C    0.91290000  0.28510000  0.58710000  0.00000000
C        C    0.21490000  0.08710000  0.08710000  0.00000000
C        C    0.08710000  0.71490000  0.41290000  0.00000000
C        C    0.08710000  0.58710000  0.71490000  0.00000000
C        C    0.28510000  0.41290000  0.08710000  0.00000000
C        C    0.08710000  0.21490000  0.08710000  0.00000000
C        C    0.58710000  0.41290000  0.21490000  0.00000000
C        C    0.78510000  0.58710000  0.41290000  0.00000000
C        C    0.58710000  0.71490000  0.08710000  0.00000000
C        C    0.91290000  0.78510000  0.08710000  0.00000000
C        C    0.90550000  0.90550000  0.76350000  0.00000000
C        C    0.40550000  0.09450000  0.26350000  0.00000000
C        C    0.90550000  0.40550000  0.26350000  0.00000000
C        C    0.90550000  0.59450000  0.26350000  0.00000000
C        C    0.76350000  0.40550000  0.40550000  0.00000000
C        C    0.90550000  0.23650000  0.09450000  0.00000000
C        C    0.26350000  0.09450000  0.59450000  0.00000000
C        C    0.09450000  0.40550000  0.73650000  0.00000000
C        C    0.59450000  0.23650000  0.59450000  0.00000000
C        C    0.40550000  0.76350000  0.40550000  0.00000000
C        C    0.40550000  0.23650000  0.59450000  0.00000000
C        C    0.40550000  0.90550000  0.73650000  0.00000000
C        C    0.09450000  0.26350000  0.40550000  0.00000000
C        C    0.23650000  0.09450000  0.90550000  0.00000000
C        C    0.73650000  0.90550000  0.59450000  0.00000000
C        C    0.09450000  0.73650000  0.59450000  0.00000000
C        C    0.23650000  0.90550000  0.09450000  0.00000000
C        C    0.40550000  0.73650000  0.09450000  0.00000000
C        C    0.90550000  0.73650000  0.40550000  0.00000000
C        C    0.40550000  0.09450000  0.73650000  0.00000000
C        C    0.90550000  0.09450000  0.76350000  0.00000000
C        C    0.59450000  0.59450000  0.23650000  0.00000000
C        C    0.09450000  0.26350000  0.59450000  0.00000000
C        C    0.59450000  0.73650000  0.90550000  0.00000000
C        C    0.09450000  0.59450000  0.26350000  0.00000000
C        C    0.76350000  0.59450000  0.59450000  0.00000000
C        C    0.09450000  0.76350000  0.90550000  0.00000000
C        C    0.23650000  0.90550000  0.90550000  0.00000000
C        C    0.90550000  0.26350000  0.40550000  0.00000000
C        C    0.90550000  0.59450000  0.73650000  0.00000000
C        C    0.73650000  0.59450000  0.90550000  0.00000000
C        C    0.40550000  0.40550000  0.76350000  0.00000000
C        C    0.09450000  0.76350000  0.09450000  0.00000000
C        C    0.40550000  0.59450000  0.23650000  0.00000000
C        C    0.59450000  0.40550000  0.76350000  0.00000000
C        C    0.09450000  0.09450000  0.23650000  0.00000000
C        C    0.23650000  0.40550000  0.59450000  0.00000000
C        C    0.23650000  0.59450000  0.40550000  0.00000000
C        C    0.90550000  0.73650000  0.59450000  0.00000000
C        C    0.73650000  0.09450000  0.40550000  0.00000000
C        C    0.59450000  0.26350000  0.09450000  0.00000000
C        C    0.40550000  0.26350000  0.90550000  0.00000000
C        C    0.90550000  0.90550000  0.23650000  0.00000000
C        C    0.90550000  0.23650000  0.90550000  0.00000000
C        C    0.40550000  0.73650000  0.90550000  0.00000000
C        C    0.73650000  0.40550000  0.90550000  0.00000000
C        C    0.40550000  0.23650000  0.40550000  0.00000000
C        C    0.09450000  0.40550000  0.26350000  0.00000000
C        C    0.09450000  0.90550000  0.76350000  0.00000000
C        C    0.09450000  0.09450000  0.76350000  0.00000000
C        C    0.59450000  0.76350000  0.59450000  0.00000000
C        C    0.23650000  0.40550000  0.40550000  0.00000000
C        C    0.90550000  0.76350000  0.90550000  0.00000000
C        C    0.76350000  0.90550000  0.09450000  0.00000000
C        C    0.59450000  0.23650000  0.40550000  0.00000000
C        C    0.26350000  0.90550000  0.59450000  0.00000000
C        C    0.23650000  0.59450000  0.59450000  0.00000000
C        C    0.90550000  0.40550000  0.73650000  0.00000000
C        C    0.73650000  0.09450000  0.59450000  0.00000000
C        C    0.26350000  0.09450000  0.40550000  0.00000000
C        C    0.59450000  0.09450000  0.73650000  0.00000000
C        C    0.40550000  0.76350000  0.59450000  0.00000000
C        C    0.26350000  0.90550000  0.40550000  0.00000000
C        C    0.40550000  0.26350000  0.09450000  0.00000000
C        C    0.59450000  0.90550000  0.26350000  0.00000000
C        C    0.40550000  0.59450000  0.76350000  0.00000000
C        C    0.26350000  0.40550000  0.90550000  0.00000000
C        C    0.40550000  0.90550000  0.26350000  0.00000000
C        C    0.09450000  0.90550000  0.23650000  0.00000000
C        C    0.73650000  0.90550000  0.40550000  0.00000000
C        C    0.26350000  0.59450000  0.09450000  0.00000000
C        C    0.09450000  0.23650000  0.90550000  0.00000000
C        C    0.76350000  0.09450000  0.09450000  0.00000000
C        C    0.59450000  0.09450000  0.26350000  0.00000000
C        C    0.40550000  0.40550000  0.23650000  0.00000000
C        C    0.26350000  0.59450000  0.90550000  0.00000000
C        C    0.73650000  0.59450000  0.09450000  0.00000000
C        C    0.90550000  0.09450000  0.23650000  0.00000000
C        C    0.59450000  0.26350000  0.90550000  0.00000000
C        C    0.59450000  0.59450000  0.76350000  0.00000000
C        C    0.76350000  0.40550000  0.59450000  0.00000000
C        C    0.73650000  0.40550000  0.09450000  0.00000000
C        C    0.76350000  0.09450000  0.90550000  0.00000000
C        C    0.76350000  0.90550000  0.90550000  0.00000000
C        C    0.59450000  0.76350000  0.40550000  0.00000000
C        C    0.59450000  0.90550000  0.73650000  0.00000000
C        C    0.90550000  0.26350000  0.59450000  0.00000000
C        C    0.23650000  0.09450000  0.09450000  0.00000000
C        C    0.09450000  0.73650000  0.40550000  0.00000000
C        C    0.09450000  0.59450000  0.73650000  0.00000000
C        C    0.26350000  0.40550000  0.09450000  0.00000000
C        C    0.09450000  0.23650000  0.09450000  0.00000000
C        C    0.59450000  0.40550000  0.23650000  0.00000000
C        C    0.76350000  0.59450000  0.40550000  0.00000000
C        C    0.59450000  0.73650000  0.09450000  0.00000000
C        C    0.90550000  0.76350000  0.09450000  0.00000000
C        C    0.75290000  0.58380000  0.61250000  0.00000000
C        C    0.41620000  0.11250000  0.25290000  0.00000000
C        C    0.74710000  0.58380000  0.88750000  0.00000000
C        C    0.11250000  0.24710000  0.91620000  0.00000000
C        C    0.91620000  0.38750000  0.25290000  0.00000000
C        C    0.88750000  0.91620000  0.75290000  0.00000000
C        C    0.88750000  0.24710000  0.08380000  0.00000000
C        C    0.11250000  0.75290000  0.91620000  0.00000000
C        C    0.91620000  0.88750000  0.75290000  0.00000000
C        C    0.91620000  0.61250000  0.25290000  0.00000000
C        C    0.74710000  0.38750000  0.08380000  0.00000000
C        C    0.11250000  0.58380000  0.74710000  0.00000000
C        C    0.11250000  0.08380000  0.75290000  0.00000000
C        C    0.91620000  0.74710000  0.38750000  0.00000000
C        C    0.25290000  0.88750000  0.41620000  0.00000000
C        C    0.74710000  0.91620000  0.61250000  0.00000000
C        C    0.41620000  0.11250000  0.74710000  0.00000000
C        C    0.41620000  0.75290000  0.38750000  0.00000000
C        C    0.11250000  0.41620000  0.74710000  0.00000000
C        C    0.75290000  0.41620000  0.61250000  0.00000000
C        C    0.41620000  0.88750000  0.25290000  0.00000000
C        C    0.25290000  0.11250000  0.41620000  0.00000000
C        C    0.75290000  0.61250000  0.41620000  0.00000000
C        C    0.41620000  0.61250000  0.75290000  0.00000000
C        C    0.38750000  0.91620000  0.74710000  0.00000000
C        C    0.75290000  0.08380000  0.11250000  0.00000000
C        C    0.24710000  0.61250000  0.41620000  0.00000000
C        C    0.24710000  0.61250000  0.58380000  0.00000000
C        C    0.61250000  0.24710000  0.58380000  0.00000000
C        C    0.58380000  0.74710000  0.88750000  0.00000000
C        C    0.58380000  0.75290000  0.61250000  0.00000000
C        C    0.25290000  0.11250000  0.58380000  0.00000000
C        C    0.24710000  0.08380000  0.88750000  0.00000000
C        C    0.11250000  0.58380000  0.25290000  0.00000000
C        C    0.75290000  0.41620000  0.38750000  0.00000000
C        C    0.74710000  0.11250000  0.58380000  0.00000000
C        C    0.91620000  0.88750000  0.24710000  0.00000000
C        C    0.38750000  0.41620000  0.75290000  0.00000000
C        C    0.58380000  0.75290000  0.38750000  0.00000000
C        C    0.61250000  0.41620000  0.24710000  0.00000000
C        C    0.91620000  0.24710000  0.88750000  0.00000000
C        C    0.11250000  0.91620000  0.24710000  0.00000000
C        C    0.38750000  0.08380000  0.25290000  0.00000000
C        C    0.08380000  0.25290000  0.61250000  0.00000000
C        C    0.61250000  0.08380000  0.74710000  0.00000000
C        C    0.88750000  0.25290000  0.58380000  0.00000000
C        C    0.88750000  0.41620000  0.25290000  0.00000000
C        C    0.88750000  0.58380000  0.25290000  0.00000000
C        C    0.38750000  0.75290000  0.58380000  0.00000000
C        C    0.61250000  0.24710000  0.41620000  0.00000000
C        C    0.75290000  0.38750000  0.41620000  0.00000000
C        C    0.91620000  0.24710000  0.11250000  0.00000000
C        C    0.08380000  0.38750000  0.25290000  0.00000000
C        C    0.25290000  0.08380000  0.61250000  0.00000000
C        C    0.61250000  0.74710000  0.08380000  0.00000000
C        C    0.41620000  0.38750000  0.24710000  0.00000000
C        C    0.41620000  0.74710000  0.11250000  0.00000000
C        C    0.88750000  0.41620000  0.74710000  0.00000000
C        C    0.61250000  0.58380000  0.24710000  0.00000000
C        C    0.08380000  0.38750000  0.74710000  0.00000000
C        C    0.11250000  0.74710000  0.58380000  0.00000000
C        C    0.58380000  0.24710000  0.61250000  0.00000000
C        C    0.38750000  0.24710000  0.58380000  0.00000000
C        C    0.24710000  0.41620000  0.38750000  0.00000000
C        C    0.38750000  0.75290000  0.41620000  0.00000000
C        C    0.41620000  0.24710000  0.61250000  0.00000000
C        C    0.08380000  0.25290000  0.38750000  0.00000000
C        C    0.24710000  0.91620000  0.11250000  0.00000000
C        C    0.91620000  0.25290000  0.38750000  0.00000000
C        C    0.11250000  0.75290000  0.08380000  0.00000000
C        C    0.91620000  0.61250000  0.74710000  0.00000000
C        C    0.38750000  0.24710000  0.41620000  0.00000000
C        C    0.41620000  0.88750000  0.74710000  0.00000000
C        C    0.11250000  0.25290000  0.41620000  0.00000000
C        C    0.61250000  0.08380000  0.25290000  0.00000000
C        C    0.11250000  0.91620000  0.75290000  0.00000000
C        C    0.41620000  0.61250000  0.24710000  0.00000000
C        C    0.24710000  0.11250000  0.91620000  0.00000000
C        C    0.75290000  0.91620000  0.11250000  0.00000000
C        C    0.24710000  0.38750000  0.58380000  0.00000000
C        C    0.91620000  0.74710000  0.61250000  0.00000000
C        C    0.74710000  0.08380000  0.38750000  0.00000000
C        C    0.41620000  0.74710000  0.88750000  0.00000000
C        C    0.74710000  0.88750000  0.58380000  0.00000000
C        C    0.58380000  0.38750000  0.75290000  0.00000000
C        C    0.11250000  0.08380000  0.24710000  0.00000000
C        C    0.41620000  0.25290000  0.11250000  0.00000000
C        C    0.88750000  0.75290000  0.91620000  0.00000000
C        C    0.41620000  0.25290000  0.88750000  0.00000000
C        C    0.08380000  0.74710000  0.61250000  0.00000000
C        C    0.91620000  0.11250000  0.75290000  0.00000000
C        C    0.61250000  0.25290000  0.08380000  0.00000000
C        C    0.24710000  0.88750000  0.08380000  0.00000000
C        C    0.38750000  0.74710000  0.08380000  0.00000000
C        C    0.88750000  0.74710000  0.41620000  0.00000000
C        C    0.38750000  0.08380000  0.74710000  0.00000000
C        C    0.88750000  0.08380000  0.75290000  0.00000000
C        C    0.58380000  0.61250000  0.24710000  0.00000000
C        C    0.74710000  0.38750000  0.91620000  0.00000000
C        C    0.24710000  0.91620000  0.88750000  0.00000000
C        C    0.08380000  0.24710000  0.11250000  0.00000000
C        C    0.74710000  0.91620000  0.38750000  0.00000000
C        C    0.11250000  0.25290000  0.58380000  0.00000000
C        C    0.61250000  0.74710000  0.91620000  0.00000000
C        C    0.08380000  0.61250000  0.25290000  0.00000000
C        C    0.75290000  0.61250000  0.58380000  0.00000000
C        C    0.08380000  0.75290000  0.88750000  0.00000000
C        C    0.24710000  0.88750000  0.91620000  0.00000000
C        C    0.88750000  0.25290000  0.41620000  0.00000000
C        C    0.88750000  0.58380000  0.74710000  0.00000000
C        C    0.74710000  0.61250000  0.91620000  0.00000000
C        C    0.41620000  0.38750000  0.75290000  0.00000000
C        C    0.25290000  0.38750000  0.08380000  0.00000000
C        C    0.08380000  0.75290000  0.11250000  0.00000000
C        C    0.38750000  0.58380000  0.24710000  0.00000000
C        C    0.61250000  0.41620000  0.75290000  0.00000000
C        C    0.08380000  0.11250000  0.24710000  0.00000000
C        C    0.24710000  0.41620000  0.61250000  0.00000000
C        C    0.24710000  0.58380000  0.38750000  0.00000000
C        C    0.88750000  0.74710000  0.58380000  0.00000000
C        C    0.74710000  0.11250000  0.41620000  0.00000000
C        C    0.25290000  0.58380000  0.88750000  0.00000000
C        C    0.58380000  0.25290000  0.11250000  0.00000000
C        C    0.38750000  0.25290000  0.91620000  0.00000000
C        C    0.91620000  0.11250000  0.24710000  0.00000000
C        C    0.61250000  0.91620000  0.74710000  0.00000000
C        C    0.25290000  0.88750000  0.58380000  0.00000000
C        C    0.88750000  0.91620000  0.24710000  0.00000000
C        C    0.58380000  0.88750000  0.25290000  0.00000000
C        C    0.75290000  0.11250000  0.91620000  0.00000000
C        C    0.88750000  0.24710000  0.91620000  0.00000000
C        C    0.38750000  0.74710000  0.91620000  0.00000000
C        C    0.74710000  0.41620000  0.88750000  0.00000000
C        C    0.74710000  0.61250000  0.08380000  0.00000000
C        C    0.41620000  0.24710000  0.38750000  0.00000000
C        C    0.11250000  0.41620000  0.25290000  0.00000000
C        C    0.08380000  0.88750000  0.75290000  0.00000000
C        C    0.08380000  0.11250000  0.75290000  0.00000000
C        C    0.61250000  0.75290000  0.58380000  0.00000000
C        C    0.24710000  0.38750000  0.41620000  0.00000000
C        C    0.11250000  0.74710000  0.41620000  0.00000000
C        C    0.25290000  0.38750000  0.91620000  0.00000000
C        C    0.91620000  0.75290000  0.88750000  0.00000000
C        C    0.75290000  0.88750000  0.08380000  0.00000000
C        C    0.58380000  0.24710000  0.38750000  0.00000000
C        C    0.25290000  0.91620000  0.61250000  0.00000000
C        C    0.24710000  0.58380000  0.61250000  0.00000000
C        C    0.91620000  0.38750000  0.74710000  0.00000000
C        C    0.74710000  0.08380000  0.61250000  0.00000000
C        C    0.25290000  0.08380000  0.38750000  0.00000000
C        C    0.58380000  0.11250000  0.74710000  0.00000000
C        C    0.24710000  0.11250000  0.08380000  0.00000000
C        C    0.41620000  0.75290000  0.61250000  0.00000000
C        C    0.25290000  0.91620000  0.38750000  0.00000000
C        C    0.25290000  0.61250000  0.08380000  0.00000000
C        C    0.38750000  0.25290000  0.08380000  0.00000000
C        C    0.61250000  0.91620000  0.25290000  0.00000000
C        C    0.61250000  0.58380000  0.75290000  0.00000000
C        C    0.38750000  0.58380000  0.75290000  0.00000000
C        C    0.25290000  0.41620000  0.88750000  0.00000000
C        C    0.38750000  0.91620000  0.25290000  0.00000000
C        C    0.08380000  0.88750000  0.24710000  0.00000000
C        C    0.74710000  0.88750000  0.41620000  0.00000000
C        C    0.25290000  0.58380000  0.11250000  0.00000000
C        C    0.08380000  0.24710000  0.88750000  0.00000000
C        C    0.75290000  0.11250000  0.08380000  0.00000000
C        C    0.58380000  0.11250000  0.25290000  0.00000000
C        C    0.38750000  0.41620000  0.24710000  0.00000000
C        C    0.25290000  0.61250000  0.91620000  0.00000000
C        C    0.74710000  0.58380000  0.11250000  0.00000000
C        C    0.88750000  0.08380000  0.24710000  0.00000000
C        C    0.58380000  0.25290000  0.88750000  0.00000000
C        C    0.61250000  0.25290000  0.91620000  0.00000000
C        C    0.91620000  0.75290000  0.11250000  0.00000000
C        C    0.58380000  0.61250000  0.75290000  0.00000000
C        C    0.75290000  0.38750000  0.58380000  0.00000000
C        C    0.74710000  0.41620000  0.11250000  0.00000000
C        C    0.75290000  0.08380000  0.88750000  0.00000000
C        C    0.75290000  0.88750000  0.91620000  0.00000000
C        C    0.75290000  0.91620000  0.88750000  0.00000000
C        C    0.61250000  0.75290000  0.41620000  0.00000000
C        C    0.58380000  0.88750000  0.74710000  0.00000000
C        C    0.91620000  0.25290000  0.61250000  0.00000000
C        C    0.24710000  0.08380000  0.11250000  0.00000000
C        C    0.08380000  0.74710000  0.38750000  0.00000000
C        C    0.08380000  0.61250000  0.74710000  0.00000000
C        C    0.25290000  0.41620000  0.11250000  0.00000000
C        C    0.11250000  0.24710000  0.08380000  0.00000000
C        C    0.58380000  0.38750000  0.24710000  0.00000000
C        C    0.75290000  0.58380000  0.38750000  0.00000000
C        C    0.58380000  0.74710000  0.11250000  0.00000000
C        C    0.88750000  0.75290000  0.08380000  0.00000000
H        H    0.76010000  0.57150000  0.61990000  0.00000000
H        H    0.42850000  0.11990000  0.26010000  0.00000000
H        H    0.73990000  0.57150000  0.88010000  0.00000000
H        H    0.11990000  0.23990000  0.92850000  0.00000000
H        H    0.92850000  0.38010000  0.26010000  0.00000000
H        H    0.88010000  0.92850000  0.76010000  0.00000000
H        H    0.88010000  0.23990000  0.07150000  0.00000000
H        H    0.11990000  0.76010000  0.92850000  0.00000000
H        H    0.92850000  0.88010000  0.76010000  0.00000000
H        H    0.92850000  0.61990000  0.26010000  0.00000000
H        H    0.73990000  0.38010000  0.07150000  0.00000000
H        H    0.11990000  0.57150000  0.73990000  0.00000000
H        H    0.11990000  0.07150000  0.76010000  0.00000000
H        H    0.92850000  0.73990000  0.38010000  0.00000000
H        H    0.26010000  0.88010000  0.42850000  0.00000000
H        H    0.73990000  0.92850000  0.61990000  0.00000000
H        H    0.42850000  0.11990000  0.73990000  0.00000000
H        H    0.42850000  0.76010000  0.38010000  0.00000000
H        H    0.11990000  0.42850000  0.73990000  0.00000000
H        H    0.76010000  0.42850000  0.61990000  0.00000000
H        H    0.42850000  0.88010000  0.26010000  0.00000000
H        H    0.26010000  0.11990000  0.42850000  0.00000000
H        H    0.76010000  0.61990000  0.42850000  0.00000000
H        H    0.42850000  0.61990000  0.76010000  0.00000000
H        H    0.38010000  0.92850000  0.73990000  0.00000000
H        H    0.76010000  0.07150000  0.11990000  0.00000000
H        H    0.23990000  0.61990000  0.42850000  0.00000000
H        H    0.23990000  0.61990000  0.57150000  0.00000000
H        H    0.61990000  0.23990000  0.57150000  0.00000000
H        H    0.57150000  0.73990000  0.88010000  0.00000000
H        H    0.57150000  0.76010000  0.61990000  0.00000000
H        H    0.26010000  0.11990000  0.57150000  0.00000000
H        H    0.23990000  0.07150000  0.88010000  0.00000000
H        H    0.11990000  0.57150000  0.26010000  0.00000000
H        H    0.76010000  0.42850000  0.38010000  0.00000000
H        H    0.73990000  0.11990000  0.57150000  0.00000000
H        H    0.92850000  0.88010000  0.23990000  0.00000000
H        H    0.38010000  0.42850000  0.76010000  0.00000000
H        H    0.57150000  0.76010000  0.38010000  0.00000000
H        H    0.61990000  0.42850000  0.23990000  0.00000000
H        H    0.92850000  0.23990000  0.88010000  0.00000000
H        H    0.11990000  0.92850000  0.23990000  0.00000000
H        H    0.38010000  0.07150000  0.26010000  0.00000000
H        H    0.07150000  0.26010000  0.61990000  0.00000000
H        H    0.61990000  0.07150000  0.73990000  0.00000000
H        H    0.88010000  0.26010000  0.57150000  0.00000000
H        H    0.88010000  0.42850000  0.26010000  0.00000000
H        H    0.88010000  0.57150000  0.26010000  0.00000000
H        H    0.38010000  0.76010000  0.57150000  0.00000000
H        H    0.61990000  0.23990000  0.42850000  0.00000000
H        H    0.76010000  0.38010000  0.42850000  0.00000000
H        H    0.92850000  0.23990000  0.11990000  0.00000000
H        H    0.07150000  0.38010000  0.26010000  0.00000000
H        H    0.26010000  0.07150000  0.61990000  0.00000000
H        H    0.61990000  0.73990000  0.07150000  0.00000000
H        H    0.42850000  0.38010000  0.23990000  0.00000000
H        H    0.42850000  0.73990000  0.11990000  0.00000000
H        H    0.88010000  0.42850000  0.73990000  0.00000000
H        H    0.61990000  0.57150000  0.23990000  0.00000000
H        H    0.07150000  0.38010000  0.73990000  0.00000000
H        H    0.11990000  0.73990000  0.57150000  0.00000000
H        H    0.57150000  0.23990000  0.61990000  0.00000000
H        H    0.38010000  0.23990000  0.57150000  0.00000000
H        H    0.23990000  0.42850000  0.38010000  0.00000000
H        H    0.38010000  0.76010000  0.42850000  0.00000000
H        H    0.42850000  0.23990000  0.61990000  0.00000000
H        H    0.07150000  0.26010000  0.38010000  0.00000000
H        H    0.23990000  0.92850000  0.11990000  0.00000000
H        H    0.92850000  0.26010000  0.38010000  0.00000000
H        H    0.11990000  0.76010000  0.07150000  0.00000000
H        H    0.92850000  0.61990000  0.73990000  0.00000000
H        H    0.38010000  0.23990000  0.42850000  0.00000000
H        H    0.42850000  0.88010000  0.73990000  0.00000000
H        H    0.11990000  0.26010000  0.42850000  0.00000000
H        H    0.61990000  0.07150000  0.26010000  0.00000000
H        H    0.11990000  0.92850000  0.76010000  0.00000000
H        H    0.42850000  0.61990000  0.23990000  0.00000000
H        H    0.23990000  0.11990000  0.92850000  0.00000000
H        H    0.76010000  0.92850000  0.11990000  0.00000000
H        H    0.23990000  0.38010000  0.57150000  0.00000000
H        H    0.92850000  0.73990000  0.61990000  0.00000000
H        H    0.73990000  0.07150000  0.38010000  0.00000000
H        H    0.42850000  0.73990000  0.88010000  0.00000000
H        H    0.73990000  0.88010000  0.57150000  0.00000000
H        H    0.57150000  0.38010000  0.76010000  0.00000000
H        H    0.11990000  0.07150000  0.23990000  0.00000000
H        H    0.42850000  0.26010000  0.11990000  0.00000000
H        H    0.88010000  0.76010000  0.92850000  0.00000000
H        H    0.42850000  0.26010000  0.88010000  0.00000000
H        H    0.07150000  0.73990000  0.61990000  0.00000000
H        H    0.92850000  0.11990000  0.76010000  0.00000000
H        H    0.61990000  0.26010000  0.07150000  0.00000000
H        H    0.23990000  0.88010000  0.07150000  0.00000000
H        H    0.38010000  0.73990000  0.07150000  0.00000000
H        H    0.88010000  0.73990000  0.42850000  0.00000000
H        H    0.38010000  0.07150000  0.73990000  0.00000000
H        H    0.88010000  0.07150000  0.76010000  0.00000000
H        H    0.57150000  0.61990000  0.23990000  0.00000000
H        H    0.73990000  0.38010000  0.92850000  0.00000000
H        H    0.23990000  0.92850000  0.88010000  0.00000000
H        H    0.07150000  0.23990000  0.11990000  0.00000000
H        H    0.73990000  0.92850000  0.38010000  0.00000000
H        H    0.11990000  0.26010000  0.57150000  0.00000000
H        H    0.61990000  0.73990000  0.92850000  0.00000000
H        H    0.07150000  0.61990000  0.26010000  0.00000000
H        H    0.76010000  0.61990000  0.57150000  0.00000000
H        H    0.07150000  0.76010000  0.88010000  0.00000000
H        H    0.23990000  0.88010000  0.92850000  0.00000000
H        H    0.88010000  0.26010000  0.42850000  0.00000000
H        H    0.88010000  0.57150000  0.73990000  0.00000000
H        H    0.73990000  0.61990000  0.92850000  0.00000000
H        H    0.42850000  0.38010000  0.76010000  0.00000000
H        H    0.26010000  0.38010000  0.07150000  0.00000000
H        H    0.07150000  0.76010000  0.11990000  0.00000000
H        H    0.38010000  0.57150000  0.23990000  0.00000000
H        H    0.61990000  0.42850000  0.76010000  0.00000000
H        H    0.07150000  0.11990000  0.23990000  0.00000000
H        H    0.23990000  0.42850000  0.61990000  0.00000000
H        H    0.23990000  0.57150000  0.38010000  0.00000000
H        H    0.88010000  0.73990000  0.57150000  0.00000000
H        H    0.73990000  0.11990000  0.42850000  0.00000000
H        H    0.26010000  0.57150000  0.88010000  0.00000000
H        H    0.57150000  0.26010000  0.11990000  0.00000000
H        H    0.38010000  0.26010000  0.92850000  0.00000000
H        H    0.92850000  0.11990000  0.23990000  0.00000000
H        H    0.61990000  0.92850000  0.73990000  0.00000000
H        H    0.26010000  0.88010000  0.57150000  0.00000000
H        H    0.88010000  0.92850000  0.23990000  0.00000000
H        H    0.57150000  0.88010000  0.26010000  0.00000000
H        H    0.76010000  0.11990000  0.92850000  0.00000000
H        H    0.88010000  0.23990000  0.92850000  0.00000000
H        H    0.38010000  0.73990000  0.92850000  0.00000000
H        H    0.73990000  0.42850000  0.88010000  0.00000000
H        H    0.73990000  0.61990000  0.07150000  0.00000000
H        H    0.42850000  0.23990000  0.38010000  0.00000000
H        H    0.11990000  0.42850000  0.26010000  0.00000000
H        H    0.07150000  0.88010000  0.76010000  0.00000000
H        H    0.07150000  0.11990000  0.76010000  0.00000000
H        H    0.61990000  0.76010000  0.57150000  0.00000000
H        H    0.23990000  0.38010000  0.42850000  0.00000000
H        H    0.11990000  0.73990000  0.42850000  0.00000000
H        H    0.26010000  0.38010000  0.92850000  0.00000000
H        H    0.92850000  0.76010000  0.88010000  0.00000000
H        H    0.76010000  0.88010000  0.07150000  0.00000000
H        H    0.57150000  0.23990000  0.38010000  0.00000000
H        H    0.26010000  0.92850000  0.61990000  0.00000000
H        H    0.23990000  0.57150000  0.61990000  0.00000000
H        H    0.92850000  0.38010000  0.73990000  0.00000000
H        H    0.73990000  0.07150000  0.61990000  0.00000000
H        H    0.26010000  0.07150000  0.38010000  0.00000000
H        H    0.57150000  0.11990000  0.73990000  0.00000000
H        H    0.23990000  0.11990000  0.07150000  0.00000000
H        H    0.42850000  0.76010000  0.61990000  0.00000000
H        H    0.26010000  0.92850000  0.38010000  0.00000000
H        H    0.26010000  0.61990000  0.07150000  0.00000000
H        H    0.38010000  0.26010000  0.07150000  0.00000000
H        H    0.61990000  0.92850000  0.26010000  0.00000000
H        H    0.61990000  0.57150000  0.76010000  0.00000000
H        H    0.38010000  0.57150000  0.76010000  0.00000000
H        H    0.26010000  0.42850000  0.88010000  0.00000000
H        H    0.38010000  0.92850000  0.26010000  0.00000000
H        H    0.07150000  0.88010000  0.23990000  0.00000000
H        H    0.73990000  0.88010000  0.42850000  0.00000000
H        H    0.26010000  0.57150000  0.11990000  0.00000000
H        H    0.07150000  0.23990000  0.88010000  0.00000000
H        H    0.76010000  0.11990000  0.07150000  0.00000000
H        H    0.57150000  0.11990000  0.26010000  0.00000000
H        H    0.38010000  0.42850000  0.23990000  0.00000000
H        H    0.26010000  0.61990000  0.92850000  0.00000000
H        H    0.73990000  0.57150000  0.11990000  0.00000000
H        H    0.88010000  0.07150000  0.23990000  0.00000000
H        H    0.57150000  0.26010000  0.88010000  0.00000000
H        H    0.61990000  0.26010000  0.92850000  0.00000000
H        H    0.92850000  0.76010000  0.11990000  0.00000000
H        H    0.57150000  0.61990000  0.76010000  0.00000000
H        H    0.76010000  0.38010000  0.57150000  0.00000000
H        H    0.73990000  0.42850000  0.11990000  0.00000000
H        H    0.76010000  0.07150000  0.88010000  0.00000000
H        H    0.76010000  0.88010000  0.92850000  0.00000000
H        H    0.76010000  0.92850000  0.88010000  0.00000000
H        H    0.61990000  0.76010000  0.42850000  0.00000000
H        H    0.57150000  0.88010000  0.73990000  0.00000000
H        H    0.92850000  0.26010000  0.61990000  0.00000000
H        H    0.23990000  0.07150000  0.11990000  0.00000000
H        H    0.07150000  0.73990000  0.38010000  0.00000000
H        H    0.07150000  0.61990000  0.73990000  0.00000000
H        H    0.26010000  0.42850000  0.11990000  0.00000000
H        H    0.11990000  0.23990000  0.07150000  0.00000000
H        H    0.57150000  0.38010000  0.23990000  0.00000000
H        H    0.76010000  0.57150000  0.38010000  0.00000000
H        H    0.57150000  0.73990000  0.11990000  0.00000000
H        H    0.88010000  0.76010000  0.07150000  0.00000000
C        C    0.73180000  0.59110000  0.61980000  0.00000000
C        C    0.40890000  0.11980000  0.23180000  0.00000000
C        C    0.76820000  0.59110000  0.88020000  0.00000000
C        C    0.11980000  0.26820000  0.90890000  0.00000000
C        C    0.90890000  0.38020000  0.23180000  0.00000000
C        C    0.88020000  0.90890000  0.73180000  0.00000000
C        C    0.88020000  0.26820000  0.09110000  0.00000000
C        C    0.11980000  0.73180000  0.90890000  0.00000000
C        C    0.90890000  0.88020000  0.73180000  0.00000000
C        C    0.90890000  0.61980000  0.23180000  0.00000000
C        C    0.76820000  0.38020000  0.09110000  0.00000000
C        C    0.11980000  0.59110000  0.76820000  0.00000000
C        C    0.11980000  0.09110000  0.73180000  0.00000000
C        C    0.90890000  0.76820000  0.38020000  0.00000000
C        C    0.23180000  0.88020000  0.40890000  0.00000000
C        C    0.76820000  0.90890000  0.61980000  0.00000000
C        C    0.40890000  0.11980000  0.76820000  0.00000000
C        C    0.40890000  0.73180000  0.38020000  0.00000000
C        C    0.11980000  0.40890000  0.76820000  0.00000000
C        C    0.73180000  0.40890000  0.61980000  0.00000000
C        C    0.40890000  0.88020000  0.23180000  0.00000000
C        C    0.23180000  0.11980000  0.40890000  0.00000000
C        C    0.73180000  0.61980000  0.40890000  0.00000000
C        C    0.40890000  0.61980000  0.73180000  0.00000000
C        C    0.38020000  0.90890000  0.76820000  0.00000000
C        C    0.73180000  0.09110000  0.11980000  0.00000000
C        C    0.26820000  0.61980000  0.40890000  0.00000000
C        C    0.26820000  0.61980000  0.59110000  0.00000000
C        C    0.61980000  0.26820000  0.59110000  0.00000000
C        C    0.59110000  0.76820000  0.88020000  0.00000000
C        C    0.59110000  0.73180000  0.61980000  0.00000000
C        C    0.23180000  0.11980000  0.59110000  0.00000000
C        C    0.26820000  0.09110000  0.88020000  0.00000000
C        C    0.11980000  0.59110000  0.23180000  0.00000000
C        C    0.73180000  0.40890000  0.38020000  0.00000000
C        C    0.76820000  0.11980000  0.59110000  0.00000000
C        C    0.90890000  0.88020000  0.26820000  0.00000000
C        C    0.38020000  0.40890000  0.73180000  0.00000000
C        C    0.59110000  0.73180000  0.38020000  0.00000000
C        C    0.61980000  0.40890000  0.26820000  0.00000000
C        C    0.90890000  0.26820000  0.88020000  0.00000000
C        C    0.11980000  0.90890000  0.26820000  0.00000000
C        C    0.38020000  0.09110000  0.23180000  0.00000000
C        C    0.09110000  0.23180000  0.61980000  0.00000000
C        C    0.61980000  0.09110000  0.76820000  0.00000000
C        C    0.88020000  0.23180000  0.59110000  0.00000000
C        C    0.88020000  0.40890000  0.23180000  0.00000000
C        C    0.88020000  0.59110000  0.23180000  0.00000000
C        C    0.38020000  0.73180000  0.59110000  0.00000000
C        C    0.61980000  0.26820000  0.40890000  0.00000000
C        C    0.73180000  0.38020000  0.40890000  0.00000000
C        C    0.90890000  0.26820000  0.11980000  0.00000000
C        C    0.09110000  0.38020000  0.23180000  0.00000000
C        C    0.23180000  0.09110000  0.61980000  0.00000000
C        C    0.61980000  0.76820000  0.09110000  0.00000000
C        C    0.40890000  0.38020000  0.26820000  0.00000000
C        C    0.40890000  0.76820000  0.11980000  0.00000000
C        C    0.88020000  0.40890000  0.76820000  0.00000000
C        C    0.61980000  0.59110000  0.26820000  0.00000000
C        C    0.09110000  0.38020000  0.76820000  0.00000000
C        C    0.11980000  0.76820000  0.59110000  0.00000000
C        C    0.59110000  0.26820000  0.61980000  0.00000000
C        C    0.38020000  0.26820000  0.59110000  0.00000000
C        C    0.26820000  0.40890000  0.38020000  0.00000000
C        C    0.38020000  0.73180000  0.40890000  0.00000000
C        C    0.40890000  0.26820000  0.61980000  0.00000000
C        C    0.09110000  0.23180000  0.38020000  0.00000000
C        C    0.26820000  0.90890000  0.11980000  0.00000000
C        C    0.90890000  0.23180000  0.38020000  0.00000000
C        C    0.11980000  0.73180000  0.09110000  0.00000000
C        C    0.90890000  0.61980000  0.76820000  0.00000000
C        C    0.38020000  0.26820000  0.40890000  0.00000000
C        C    0.40890000  0.88020000  0.76820000  0.00000000
C        C    0.11980000  0.23180000  0.40890000  0.00000000
C        C    0.61980000  0.09110000  0.23180000  0.00000000
C        C    0.11980000  0.90890000  0.73180000  0.00000000
C        C    0.40890000  0.61980000  0.26820000  0.00000000
C        C    0.26820000  0.11980000  0.90890000  0.00000000
C        C    0.73180000  0.90890000  0.11980000  0.00000000
C        C    0.26820000  0.38020000  0.59110000  0.00000000
C        C    0.90890000  0.76820000  0.61980000  0.00000000
C        C    0.76820000  0.09110000  0.38020000  0.00000000
C        C    0.40890000  0.76820000  0.88020000  0.00000000
C        C    0.76820000  0.88020000  0.59110000  0.00000000
C        C    0.59110000  0.38020000  0.73180000  0.00000000
C        C    0.11980000  0.09110000  0.26820000  0.00000000
C        C    0.40890000  0.23180000  0.11980000  0.00000000
C        C    0.88020000  0.73180000  0.90890000  0.00000000
C        C    0.40890000  0.23180000  0.88020000  0.00000000
C        C    0.09110000  0.76820000  0.61980000  0.00000000
C        C    0.90890000  0.11980000  0.73180000  0.00000000
C        C    0.61980000  0.23180000  0.09110000  0.00000000
C        C    0.26820000  0.88020000  0.09110000  0.00000000
C        C    0.38020000  0.76820000  0.09110000  0.00000000
C        C    0.88020000  0.76820000  0.40890000  0.00000000
C        C    0.38020000  0.09110000  0.76820000  0.00000000
C        C    0.88020000  0.09110000  0.73180000  0.00000000
C        C    0.59110000  0.61980000  0.26820000  0.00000000
C        C    0.76820000  0.38020000  0.90890000  0.00000000
C        C    0.26820000  0.90890000  0.88020000  0.00000000
C        C    0.09110000  0.26820000  0.11980000  0.00000000
C        C    0.76820000  0.90890000  0.38020000  0.00000000
C        C    0.11980000  0.23180000  0.59110000  0.00000000
C        C    0.61980000  0.76820000  0.90890000  0.00000000
C        C    0.09110000  0.61980000  0.23180000  0.00000000
C        C    0.73180000  0.61980000  0.59110000  0.00000000
C        C    0.09110000  0.73180000  0.88020000  0.00000000
C        C    0.26820000  0.88020000  0.90890000  0.00000000
C        C    0.88020000  0.23180000  0.40890000  0.00000000
C        C    0.88020000  0.59110000  0.76820000  0.00000000
C        C    0.76820000  0.61980000  0.90890000  0.00000000
C        C    0.40890000  0.38020000  0.73180000  0.00000000
C        C    0.23180000  0.38020000  0.09110000  0.00000000
C        C    0.09110000  0.73180000  0.11980000  0.00000000
C        C    0.38020000  0.59110000  0.26820000  0.00000000
C        C    0.61980000  0.40890000  0.73180000  0.00000000
C        C    0.09110000  0.11980000  0.26820000  0.00000000
C        C    0.26820000  0.40890000  0.61980000  0.00000000
C        C    0.26820000  0.59110000  0.38020000  0.00000000
C        C    0.88020000  0.76820000  0.59110000  0.00000000
C        C    0.76820000  0.11980000  0.40890000  0.00000000
C        C    0.23180000  0.59110000  0.88020000  0.00000000
C        C    0.59110000  0.23180000  0.11980000  0.00000000
C        C    0.38020000  0.23180000  0.90890000  0.00000000
C        C    0.90890000  0.11980000  0.26820000  0.00000000
C        C    0.61980000  0.90890000  0.76820000  0.00000000
C        C    0.23180000  0.88020000  0.59110000  0.00000000
C        C    0.88020000  0.90890000  0.26820000  0.00000000
C        C    0.59110000  0.88020000  0.23180000  0.00000000
C        C    0.73180000  0.11980000  0.90890000  0.00000000
C        C    0.88020000  0.26820000  0.90890000  0.00000000
C        C    0.38020000  0.76820000  0.90890000  0.00000000
C        C    0.76820000  0.40890000  0.88020000  0.00000000
C        C    0.76820000  0.61980000  0.09110000  0.00000000
C        C    0.40890000  0.26820000  0.38020000  0.00000000
C        C    0.11980000  0.40890000  0.23180000  0.00000000
C        C    0.09110000  0.88020000  0.73180000  0.00000000
C        C    0.09110000  0.11980000  0.73180000  0.00000000
C        C    0.61980000  0.73180000  0.59110000  0.00000000
C        C    0.26820000  0.38020000  0.40890000  0.00000000
C        C    0.11980000  0.76820000  0.40890000  0.00000000
C        C    0.23180000  0.38020000  0.90890000  0.00000000
C        C    0.90890000  0.73180000  0.88020000  0.00000000
C        C    0.73180000  0.88020000  0.09110000  0.00000000
C        C    0.59110000  0.26820000  0.38020000  0.00000000
C        C    0.23180000  0.90890000  0.61980000  0.00000000
C        C    0.26820000  0.59110000  0.61980000  0.00000000
C        C    0.90890000  0.38020000  0.76820000  0.00000000
C        C    0.76820000  0.09110000  0.61980000  0.00000000
C        C    0.23180000  0.09110000  0.38020000  0.00000000
C        C    0.59110000  0.11980000  0.76820000  0.00000000
C        C    0.26820000  0.11980000  0.09110000  0.00000000
C        C    0.40890000  0.73180000  0.61980000  0.00000000
C        C    0.23180000  0.90890000  0.38020000  0.00000000
C        C    0.23180000  0.61980000  0.09110000  0.00000000
C        C    0.38020000  0.23180000  0.09110000  0.00000000
C        C    0.61980000  0.90890000  0.23180000  0.00000000
C        C    0.61980000  0.59110000  0.73180000  0.00000000
C        C    0.38020000  0.59110000  0.73180000  0.00000000
C        C    0.23180000  0.40890000  0.88020000  0.00000000
C        C    0.38020000  0.90890000  0.23180000  0.00000000
C        C    0.09110000  0.88020000  0.26820000  0.00000000
C        C    0.76820000  0.88020000  0.40890000  0.00000000
C        C    0.23180000  0.59110000  0.11980000  0.00000000
C        C    0.09110000  0.26820000  0.88020000  0.00000000
C        C    0.73180000  0.11980000  0.09110000  0.00000000
C        C    0.59110000  0.11980000  0.23180000  0.00000000
C        C    0.38020000  0.40890000  0.26820000  0.00000000
C        C    0.23180000  0.61980000  0.90890000  0.00000000
C        C    0.76820000  0.59110000  0.11980000  0.00000000
C        C    0.88020000  0.09110000  0.26820000  0.00000000
C        C    0.59110000  0.23180000  0.88020000  0.00000000
C        C    0.61980000  0.23180000  0.90890000  0.00000000
C        C    0.90890000  0.73180000  0.11980000  0.00000000
C        C    0.59110000  0.61980000  0.73180000  0.00000000
C        C    0.73180000  0.38020000  0.59110000  0.00000000
C        C    0.76820000  0.40890000  0.11980000  0.00000000
C        C    0.73180000  0.09110000  0.88020000  0.00000000
C        C    0.73180000  0.88020000  0.90890000  0.00000000
C        C    0.73180000  0.90890000  0.88020000  0.00000000
C        C    0.61980000  0.73180000  0.40890000  0.00000000
C        C    0.59110000  0.88020000  0.76820000  0.00000000
C        C    0.90890000  0.23180000  0.61980000  0.00000000
C        C    0.26820000  0.09110000  0.11980000  0.00000000
C        C    0.09110000  0.76820000  0.38020000  0.00000000
C        C    0.09110000  0.61980000  0.76820000  0.00000000
C        C    0.23180000  0.40890000  0.11980000  0.00000000
C        C    0.11980000  0.26820000  0.09110000  0.00000000
C        C    0.59110000  0.38020000  0.26820000  0.00000000
C        C    0.73180000  0.59110000  0.38020000  0.00000000
C        C    0.59110000  0.76820000  0.11980000  0.00000000
C        C    0.88020000  0.73180000  0.09110000  0.00000000
H        H    0.72460000  0.58370000  0.63210000  0.00000000
H        H    0.41630000  0.13210000  0.22460000  0.00000000
H        H    0.77540000  0.58370000  0.86790000  0.00000000
H        H    0.13210000  0.27540000  0.91630000  0.00000000
H        H    0.91630000  0.36790000  0.22460000  0.00000000
H        H    0.86790000  0.91630000  0.72460000  0.00000000
H        H    0.86790000  0.27540000  0.08370000  0.00000000
H        H    0.13210000  0.72460000  0.91630000  0.00000000
H        H    0.91630000  0.86790000  0.72460000  0.00000000
H        H    0.91630000  0.63210000  0.22460000  0.00000000
H        H    0.77540000  0.36790000  0.08370000  0.00000000
H        H    0.13210000  0.58370000  0.77540000  0.00000000
H        H    0.13210000  0.08370000  0.72460000  0.00000000
H        H    0.91630000  0.77540000  0.36790000  0.00000000
H        H    0.22460000  0.86790000  0.41630000  0.00000000
H        H    0.77540000  0.91630000  0.63210000  0.00000000
H        H    0.41630000  0.13210000  0.77540000  0.00000000
H        H    0.41630000  0.72460000  0.36790000  0.00000000
H        H    0.13210000  0.41630000  0.77540000  0.00000000
H        H    0.72460000  0.41630000  0.63210000  0.00000000
H        H    0.41630000  0.86790000  0.22460000  0.00000000
H        H    0.22460000  0.13210000  0.41630000  0.00000000
H        H    0.72460000  0.63210000  0.41630000  0.00000000
H        H    0.41630000  0.63210000  0.72460000  0.00000000
H        H    0.36790000  0.91630000  0.77540000  0.00000000
H        H    0.72460000  0.08370000  0.13210000  0.00000000
H        H    0.27540000  0.63210000  0.41630000  0.00000000
H        H    0.27540000  0.63210000  0.58370000  0.00000000
H        H    0.63210000  0.27540000  0.58370000  0.00000000
H        H    0.58370000  0.77540000  0.86790000  0.00000000
H        H    0.58370000  0.72460000  0.63210000  0.00000000
H        H    0.22460000  0.13210000  0.58370000  0.00000000
H        H    0.27540000  0.08370000  0.86790000  0.00000000
H        H    0.13210000  0.58370000  0.22460000  0.00000000
H        H    0.72460000  0.41630000  0.36790000  0.00000000
H        H    0.77540000  0.13210000  0.58370000  0.00000000
H        H    0.91630000  0.86790000  0.27540000  0.00000000
H        H    0.36790000  0.41630000  0.72460000  0.00000000
H        H    0.58370000  0.72460000  0.36790000  0.00000000
H        H    0.63210000  0.41630000  0.27540000  0.00000000
H        H    0.91630000  0.27540000  0.86790000  0.00000000
H        H    0.13210000  0.91630000  0.27540000  0.00000000
H        H    0.36790000  0.08370000  0.22460000  0.00000000
H        H    0.08370000  0.22460000  0.63210000  0.00000000
H        H    0.63210000  0.08370000  0.77540000  0.00000000
H        H    0.86790000  0.22460000  0.58370000  0.00000000
H        H    0.86790000  0.41630000  0.22460000  0.00000000
H        H    0.86790000  0.58370000  0.22460000  0.00000000
H        H    0.36790000  0.72460000  0.58370000  0.00000000
H        H    0.63210000  0.27540000  0.41630000  0.00000000
H        H    0.72460000  0.36790000  0.41630000  0.00000000
H        H    0.91630000  0.27540000  0.13210000  0.00000000
H        H    0.08370000  0.36790000  0.22460000  0.00000000
H        H    0.22460000  0.08370000  0.63210000  0.00000000
H        H    0.63210000  0.77540000  0.08370000  0.00000000
H        H    0.41630000  0.36790000  0.27540000  0.00000000
H        H    0.41630000  0.77540000  0.13210000  0.00000000
H        H    0.86790000  0.41630000  0.77540000  0.00000000
H        H    0.63210000  0.58370000  0.27540000  0.00000000
H        H    0.08370000  0.36790000  0.77540000  0.00000000
H        H    0.13210000  0.77540000  0.58370000  0.00000000
H        H    0.58370000  0.27540000  0.63210000  0.00000000
H        H    0.36790000  0.27540000  0.58370000  0.00000000
H        H    0.27540000  0.41630000  0.36790000  0.00000000
H        H    0.36790000  0.72460000  0.41630000  0.00000000
H        H    0.41630000  0.27540000  0.63210000  0.00000000
H        H    0.08370000  0.22460000  0.36790000  0.00000000
H        H    0.27540000  0.91630000  0.13210000  0.00000000
H        H    0.91630000  0.22460000  0.36790000  0.00000000
H        H    0.13210000  0.72460000  0.08370000  0.00000000
H        H    0.91630000  0.63210000  0.77540000  0.00000000
H        H    0.36790000  0.27540000  0.41630000  0.00000000
H        H    0.41630000  0.86790000  0.77540000  0.00000000
H        H    0.13210000  0.22460000  0.41630000  0.00000000
H        H    0.63210000  0.08370000  0.22460000  0.00000000
H        H    0.13210000  0.91630000  0.72460000  0.00000000
H        H    0.41630000  0.63210000  0.27540000  0.00000000
H        H    0.27540000  0.13210000  0.91630000  0.00000000
H        H    0.72460000  0.91630000  0.13210000  0.00000000
H        H    0.27540000  0.36790000  0.58370000  0.00000000
H        H    0.91630000  0.77540000  0.63210000  0.00000000
H        H    0.77540000  0.08370000  0.36790000  0.00000000
H        H    0.41630000  0.77540000  0.86790000  0.00000000
H        H    0.77540000  0.86790000  0.58370000  0.00000000
H        H    0.58370000  0.36790000  0.72460000  0.00000000
H        H    0.13210000  0.08370000  0.27540000  0.00000000
H        H    0.41630000  0.22460000  0.13210000  0.00000000
H        H    0.86790000  0.72460000  0.91630000  0.00000000
H        H    0.41630000  0.22460000  0.86790000  0.00000000
H        H    0.08370000  0.77540000  0.63210000  0.00000000
H        H    0.91630000  0.13210000  0.72460000  0.00000000
H        H    0.63210000  0.22460000  0.08370000  0.00000000
H        H    0.27540000  0.86790000  0.08370000  0.00000000
H        H    0.36790000  0.77540000  0.08370000  0.00000000
H        H    0.86790000  0.77540000  0.41630000  0.00000000
H        H    0.36790000  0.08370000  0.77540000  0.00000000
H        H    0.86790000  0.08370000  0.72460000  0.00000000
H        H    0.58370000  0.63210000  0.27540000  0.00000000
H        H    0.77540000  0.36790000  0.91630000  0.00000000
H        H    0.27540000  0.91630000  0.86790000  0.00000000
H        H    0.08370000  0.27540000  0.13210000  0.00000000
H        H    0.77540000  0.91630000  0.36790000  0.00000000
H        H    0.13210000  0.22460000  0.58370000  0.00000000
H        H    0.63210000  0.77540000  0.91630000  0.00000000
H        H    0.08370000  0.63210000  0.22460000  0.00000000
H        H    0.72460000  0.63210000  0.58370000  0.00000000
H        H    0.08370000  0.72460000  0.86790000  0.00000000
H        H    0.27540000  0.86790000  0.91630000  0.00000000
H        H    0.86790000  0.22460000  0.41630000  0.00000000
H        H    0.86790000  0.58370000  0.77540000  0.00000000
H        H    0.77540000  0.63210000  0.91630000  0.00000000
H        H    0.41630000  0.36790000  0.72460000  0.00000000
H        H    0.22460000  0.36790000  0.08370000  0.00000000
H        H    0.08370000  0.72460000  0.13210000  0.00000000
H        H    0.36790000  0.58370000  0.27540000  0.00000000
H        H    0.63210000  0.41630000  0.72460000  0.00000000
H        H    0.08370000  0.13210000  0.27540000  0.00000000
H        H    0.27540000  0.41630000  0.63210000  0.00000000
H        H    0.27540000  0.58370000  0.36790000  0.00000000
H        H    0.86790000  0.77540000  0.58370000  0.00000000
H        H    0.77540000  0.13210000  0.41630000  0.00000000
H        H    0.22460000  0.58370000  0.86790000  0.00000000
H        H    0.58370000  0.22460000  0.13210000  0.00000000
H        H    0.36790000  0.22460000  0.91630000  0.00000000
H        H    0.91630000  0.13210000  0.27540000  0.00000000
H        H    0.63210000  0.91630000  0.77540000  0.00000000
H        H    0.22460000  0.86790000  0.58370000  0.00000000
H        H    0.86790000  0.91630000  0.27540000  0.00000000
H        H    0.58370000  0.86790000  0.22460000  0.00000000
H        H    0.72460000  0.13210000  0.91630000  0.00000000
H        H    0.86790000  0.27540000  0.91630000  0.00000000
H        H    0.36790000  0.77540000  0.91630000  0.00000000
H        H    0.77540000  0.41630000  0.86790000  0.00000000
H        H    0.77540000  0.63210000  0.08370000  0.00000000
H        H    0.41630000  0.27540000  0.36790000  0.00000000
H        H    0.13210000  0.41630000  0.22460000  0.00000000
H        H    0.08370000  0.86790000  0.72460000  0.00000000
H        H    0.08370000  0.13210000  0.72460000  0.00000000
H        H    0.63210000  0.72460000  0.58370000  0.00000000
H        H    0.27540000  0.36790000  0.41630000  0.00000000
H        H    0.13210000  0.77540000  0.41630000  0.00000000
H        H    0.22460000  0.36790000  0.91630000  0.00000000
H        H    0.91630000  0.72460000  0.86790000  0.00000000
H        H    0.72460000  0.86790000  0.08370000  0.00000000
H        H    0.58370000  0.27540000  0.36790000  0.00000000
H        H    0.22460000  0.91630000  0.63210000  0.00000000
H        H    0.27540000  0.58370000  0.63210000  0.00000000
H        H    0.91630000  0.36790000  0.77540000  0.00000000
H        H    0.77540000  0.08370000  0.63210000  0.00000000
H        H    0.22460000  0.08370000  0.36790000  0.00000000
H        H    0.58370000  0.13210000  0.77540000  0.00000000
H        H    0.27540000  0.13210000  0.08370000  0.00000000
H        H    0.41630000  0.72460000  0.63210000  0.00000000
H        H    0.22460000  0.91630000  0.36790000  0.00000000
H        H    0.22460000  0.63210000  0.08370000  0.00000000
H        H    0.36790000  0.22460000  0.08370000  0.00000000
H        H    0.63210000  0.91630000  0.22460000  0.00000000
H        H    0.63210000  0.58370000  0.72460000  0.00000000
H        H    0.36790000  0.58370000  0.72460000  0.00000000
H        H    0.22460000  0.41630000  0.86790000  0.00000000
H        H    0.36790000  0.91630000  0.22460000  0.00000000
H        H    0.08370000  0.86790000  0.27540000  0.00000000
H        H    0.77540000  0.86790000  0.41630000  0.00000000
H        H    0.22460000  0.58370000  0.13210000  0.00000000
H        H    0.08370000  0.27540000  0.86790000  0.00000000
H        H    0.72460000  0.13210000  0.08370000  0.00000000
H        H    0.58370000  0.13210000  0.22460000  0.00000000
H        H    0.36790000  0.41630000  0.27540000  0.00000000
H        H    0.22460000  0.63210000  0.91630000  0.00000000
H        H    0.77540000  0.58370000  0.13210000  0.00000000
H        H    0.86790000  0.08370000  0.27540000  0.00000000
H        H    0.58370000  0.22460000  0.86790000  0.00000000
H        H    0.63210000  0.22460000  0.91630000  0.00000000
H        H    0.91630000  0.72460000  0.13210000  0.00000000
H        H    0.58370000  0.63210000  0.72460000  0.00000000
H        H    0.72460000  0.36790000  0.58370000  0.00000000
H        H    0.77540000  0.41630000  0.13210000  0.00000000
H        H    0.72460000  0.08370000  0.86790000  0.00000000
H        H    0.72460000  0.86790000  0.91630000  0.00000000
H        H    0.72460000  0.91630000  0.86790000  0.00000000
H        H    0.63210000  0.72460000  0.41630000  0.00000000
H        H    0.58370000  0.86790000  0.77540000  0.00000000
H        H    0.91630000  0.22460000  0.63210000  0.00000000
H        H    0.27540000  0.08370000  0.13210000  0.00000000
H        H    0.08370000  0.77540000  0.36790000  0.00000000
H        H    0.08370000  0.63210000  0.77540000  0.00000000
H        H    0.22460000  0.41630000  0.13210000  0.00000000
H        H    0.13210000  0.27540000  0.08370000  0.00000000
H        H    0.58370000  0.36790000  0.27540000  0.00000000
H        H    0.72460000  0.58370000  0.36790000  0.00000000
H        H    0.58370000  0.77540000  0.13210000  0.00000000
H        H    0.86790000  0.72460000  0.08370000  0.00000000
C        C    0.89090000  0.89090000  0.72110000  0.00000000
C        C    0.39090000  0.10910000  0.22110000  0.00000000
C        C    0.89090000  0.39090000  0.22110000  0.00000000
C        C    0.89090000  0.60910000  0.22110000  0.00000000
C        C    0.72110000  0.39090000  0.39090000  0.00000000
C        C    0.89090000  0.27890000  0.10910000  0.00000000
C        C    0.22110000  0.10910000  0.60910000  0.00000000
C        C    0.10910000  0.39090000  0.77890000  0.00000000
C        C    0.60910000  0.27890000  0.60910000  0.00000000
C        C    0.39090000  0.72110000  0.39090000  0.00000000
C        C    0.39090000  0.27890000  0.60910000  0.00000000
C        C    0.39090000  0.89090000  0.77890000  0.00000000
C        C    0.10910000  0.22110000  0.39090000  0.00000000
C        C    0.27890000  0.10910000  0.89090000  0.00000000
C        C    0.77890000  0.89090000  0.60910000  0.00000000
C        C    0.10910000  0.77890000  0.60910000  0.00000000
C        C    0.27890000  0.89090000  0.10910000  0.00000000
C        C    0.39090000  0.77890000  0.10910000  0.00000000
C        C    0.89090000  0.77890000  0.39090000  0.00000000
C        C    0.39090000  0.10910000  0.77890000  0.00000000
C        C    0.89090000  0.10910000  0.72110000  0.00000000
C        C    0.60910000  0.60910000  0.27890000  0.00000000
C        C    0.10910000  0.22110000  0.60910000  0.00000000
C        C    0.60910000  0.77890000  0.89090000  0.00000000
C        C    0.10910000  0.60910000  0.22110000  0.00000000
C        C    0.72110000  0.60910000  0.60910000  0.00000000
C        C    0.10910000  0.72110000  0.89090000  0.00000000
C        C    0.27890000  0.89090000  0.89090000  0.00000000
C        C    0.89090000  0.22110000  0.39090000  0.00000000
C        C    0.89090000  0.60910000  0.77890000  0.00000000
C        C    0.77890000  0.60910000  0.89090000  0.00000000
C        C    0.39090000  0.39090000  0.72110000  0.00000000
C        C    0.10910000  0.72110000  0.10910000  0.00000000
C        C    0.39090000  0.60910000  0.27890000  0.00000000
C        C    0.60910000  0.39090000  0.72110000  0.00000000
C        C    0.10910000  0.10910000  0.27890000  0.00000000
C        C    0.27890000  0.39090000  0.60910000  0.00000000
C        C    0.27890000  0.60910000  0.39090000  0.00000000
C        C    0.89090000  0.77890000  0.60910000  0.00000000
C        C    0.77890000  0.10910000  0.39090000  0.00000000
C        C    0.60910000  0.22110000  0.10910000  0.00000000
C        C    0.39090000  0.22110000  0.89090000  0.00000000
C        C    0.89090000  0.89090000  0.27890000  0.00000000
C        C    0.89090000  0.27890000  0.89090000  0.00000000
C        C    0.39090000  0.77890000  0.89090000  0.00000000
C        C    0.77890000  0.39090000  0.89090000  0.00000000
C        C    0.39090000  0.27890000  0.39090000  0.00000000
C        C    0.10910000  0.39090000  0.22110000  0.00000000
C        C    0.10910000  0.89090000  0.72110000  0.00000000
C        C    0.10910000  0.10910000  0.72110000  0.00000000
C        C    0.60910000  0.72110000  0.60910000  0.00000000
C        C    0.27890000  0.39090000  0.39090000  0.00000000
C        C    0.89090000  0.72110000  0.89090000  0.00000000
C        C    0.72110000  0.89090000  0.10910000  0.00000000
C        C    0.60910000  0.27890000  0.39090000  0.00000000
C        C    0.22110000  0.89090000  0.60910000  0.00000000
C        C    0.27890000  0.60910000  0.60910000  0.00000000
C        C    0.89090000  0.39090000  0.77890000  0.00000000
C        C    0.77890000  0.10910000  0.60910000  0.00000000
C        C    0.22110000  0.10910000  0.39090000  0.00000000
C        C    0.60910000  0.10910000  0.77890000  0.00000000
C        C    0.39090000  0.72110000  0.60910000  0.00000000
C        C    0.22110000  0.89090000  0.39090000  0.00000000
C        C    0.39090000  0.22110000  0.10910000  0.00000000
C        C    0.60910000  0.89090000  0.22110000  0.00000000
C        C    0.39090000  0.60910000  0.72110000  0.00000000
C        C    0.22110000  0.39090000  0.89090000  0.00000000
C        C    0.39090000  0.89090000  0.22110000  0.00000000
C        C    0.10910000  0.89090000  0.27890000  0.00000000
C        C    0.77890000  0.89090000  0.39090000  0.00000000
C        C    0.22110000  0.60910000  0.10910000  0.00000000
C        C    0.10910000  0.27890000  0.89090000  0.00000000
C        C    0.72110000  0.10910000  0.10910000  0.00000000
C        C    0.60910000  0.10910000  0.22110000  0.00000000
C        C    0.39090000  0.39090000  0.27890000  0.00000000
C        C    0.22110000  0.60910000  0.89090000  0.00000000
C        C    0.77890000  0.60910000  0.10910000  0.00000000
C        C    0.89090000  0.10910000  0.27890000  0.00000000
C        C    0.60910000  0.22110000  0.89090000  0.00000000
C        C    0.60910000  0.60910000  0.72110000  0.00000000
C        C    0.72110000  0.39090000  0.60910000  0.00000000
C        C    0.77890000  0.39090000  0.10910000  0.00000000
C        C    0.72110000  0.10910000  0.89090000  0.00000000
C        C    0.72110000  0.89090000  0.89090000  0.00000000
C        C    0.60910000  0.72110000  0.39090000  0.00000000
C        C    0.60910000  0.89090000  0.77890000  0.00000000
C        C    0.89090000  0.22110000  0.60910000  0.00000000
C        C    0.27890000  0.10910000  0.10910000  0.00000000
C        C    0.10910000  0.77890000  0.39090000  0.00000000
C        C    0.10910000  0.60910000  0.77890000  0.00000000
C        C    0.22110000  0.39090000  0.10910000  0.00000000
C        C    0.10910000  0.27890000  0.10910000  0.00000000
C        C    0.60910000  0.39090000  0.27890000  0.00000000
C        C    0.72110000  0.60910000  0.39090000  0.00000000
C        C    0.60910000  0.77890000  0.10910000  0.00000000
C        C    0.89090000  0.72110000  0.10910000  0.00000000
C        C    0.88340000  0.88340000  0.69930000  0.00000000
C        C    0.38340000  0.11660000  0.19930000  0.00000000
C        C    0.88340000  0.38340000  0.19930000  0.00000000
C        C    0.88340000  0.61660000  0.19930000  0.00000000
C        C    0.69930000  0.38340000  0.38340000  0.00000000
C        C    0.88340000  0.30070000  0.11660000  0.00000000
C        C    0.19930000  0.11660000  0.61660000  0.00000000
C        C    0.11660000  0.38340000  0.80070000  0.00000000
C        C    0.61660000  0.30070000  0.61660000  0.00000000
C        C    0.38340000  0.69930000  0.38340000  0.00000000
C        C    0.38340000  0.30070000  0.61660000  0.00000000
C        C    0.38340000  0.88340000  0.80070000  0.00000000
C        C    0.11660000  0.19930000  0.38340000  0.00000000
C        C    0.30070000  0.11660000  0.88340000  0.00000000
C        C    0.80070000  0.88340000  0.61660000  0.00000000
C        C    0.11660000  0.80070000  0.61660000  0.00000000
C        C    0.30070000  0.88340000  0.11660000  0.00000000
C        C    0.38340000  0.80070000  0.11660000  0.00000000
C        C    0.88340000  0.80070000  0.38340000  0.00000000
C        C    0.38340000  0.11660000  0.80070000  0.00000000
C        C    0.88340000  0.11660000  0.69930000  0.00000000
C        C    0.61660000  0.61660000  0.30070000  0.00000000
C        C    0.11660000  0.19930000  0.61660000  0.00000000
C        C    0.61660000  0.80070000  0.88340000  0.00000000
C        C    0.11660000  0.61660000  0.19930000  0.00000000
C        C    0.69930000  0.61660000  0.61660000  0.00000000
C        C    0.11660000  0.69930000  0.88340000  0.00000000
C        C    0.30070000  0.88340000  0.88340000  0.00000000
C        C    0.88340000  0.19930000  0.38340000  0.00000000
C        C    0.88340000  0.61660000  0.80070000  0.00000000
C        C    0.80070000  0.61660000  0.88340000  0.00000000
C        C    0.38340000  0.38340000  0.69930000  0.00000000
C        C    0.11660000  0.69930000  0.11660000  0.00000000
C        C    0.38340000  0.61660000  0.30070000  0.00000000
C        C    0.61660000  0.38340000  0.69930000  0.00000000
C        C    0.11660000  0.11660000  0.30070000  0.00000000
C        C    0.30070000  0.38340000  0.61660000  0.00000000
C        C    0.30070000  0.61660000  0.38340000  0.00000000
C        C    0.88340000  0.80070000  0.61660000  0.00000000
C        C    0.80070000  0.11660000  0.38340000  0.00000000
C        C    0.61660000  0.19930000  0.11660000  0.00000000
C        C    0.38340000  0.19930000  0.88340000  0.00000000
C        C    0.88340000  0.88340000  0.30070000  0.00000000
C        C    0.88340000  0.30070000  0.88340000  0.00000000
C        C    0.38340000  0.80070000  0.88340000  0.00000000
C        C    0.80070000  0.38340000  0.88340000  0.00000000
C        C    0.38340000  0.30070000  0.38340000  0.00000000
C        C    0.11660000  0.38340000  0.19930000  0.00000000
C        C    0.11660000  0.88340000  0.69930000  0.00000000
C        C    0.11660000  0.11660000  0.69930000  0.00000000
C        C    0.61660000  0.69930000  0.61660000  0.00000000
C        C    0.30070000  0.38340000  0.38340000  0.00000000
C        C    0.88340000  0.69930000  0.88340000  0.00000000
C        C    0.69930000  0.88340000  0.11660000  0.00000000
C        C    0.61660000  0.30070000  0.38340000  0.00000000
C        C    0.19930000  0.88340000  0.61660000  0.00000000
C        C    0.30070000  0.61660000  0.61660000  0.00000000
C        C    0.88340000  0.38340000  0.80070000  0.00000000
C        C    0.80070000  0.11660000  0.61660000  0.00000000
C        C    0.19930000  0.11660000  0.38340000  0.00000000
C        C    0.61660000  0.11660000  0.80070000  0.00000000
C        C    0.38340000  0.69930000  0.61660000  0.00000000
C        C    0.19930000  0.88340000  0.38340000  0.00000000
C        C    0.38340000  0.19930000  0.11660000  0.00000000
C        C    0.61660000  0.88340000  0.19930000  0.00000000
C        C    0.38340000  0.61660000  0.69930000  0.00000000
C        C    0.19930000  0.38340000  0.88340000  0.00000000
C        C    0.38340000  0.88340000  0.19930000  0.00000000
C        C    0.11660000  0.88340000  0.30070000  0.00000000
C        C    0.80070000  0.88340000  0.38340000  0.00000000
C        C    0.19930000  0.61660000  0.11660000  0.00000000
C        C    0.11660000  0.30070000  0.88340000  0.00000000
C        C    0.69930000  0.11660000  0.11660000  0.00000000
C        C    0.61660000  0.11660000  0.19930000  0.00000000
C        C    0.38340000  0.38340000  0.30070000  0.00000000
C        C    0.19930000  0.61660000  0.88340000  0.00000000
C        C    0.80070000  0.61660000  0.11660000  0.00000000
C        C    0.88340000  0.11660000  0.30070000  0.00000000
C        C    0.61660000  0.19930000  0.88340000  0.00000000
C        C    0.61660000  0.61660000  0.69930000  0.00000000
C        C    0.69930000  0.38340000  0.61660000  0.00000000
C        C    0.80070000  0.38340000  0.11660000  0.00000000
C        C    0.69930000  0.11660000  0.88340000  0.00000000
C        C    0.69930000  0.88340000  0.88340000  0.00000000
C        C    0.61660000  0.69930000  0.38340000  0.00000000
C        C    0.61660000  0.88340000  0.80070000  0.00000000
C        C    0.88340000  0.19930000  0.61660000  0.00000000
C        C    0.30070000  0.11660000  0.11660000  0.00000000
C        C    0.11660000  0.80070000  0.38340000  0.00000000
C        C    0.11660000  0.61660000  0.80070000  0.00000000
C        C    0.19930000  0.38340000  0.11660000  0.00000000
C        C    0.11660000  0.30070000  0.11660000  0.00000000
C        C    0.61660000  0.38340000  0.30070000  0.00000000
C        C    0.69930000  0.61660000  0.38340000  0.00000000
C        C    0.61660000  0.80070000  0.11660000  0.00000000
C        C    0.88340000  0.69930000  0.11660000  0.00000000
C        C    0.87720000  0.87720000  0.68120000  0.00000000
C        C    0.37720000  0.12280000  0.18120000  0.00000000
C        C    0.87720000  0.37720000  0.18120000  0.00000000
C        C    0.87720000  0.62280000  0.18120000  0.00000000
C        C    0.68120000  0.37720000  0.37720000  0.00000000
C        C    0.87720000  0.31880000  0.12280000  0.00000000
C        C    0.18120000  0.12280000  0.62280000  0.00000000
C        C    0.12280000  0.37720000  0.81880000  0.00000000
C        C    0.62280000  0.31880000  0.62280000  0.00000000
C        C    0.37720000  0.68120000  0.37720000  0.00000000
C        C    0.37720000  0.31880000  0.62280000  0.00000000
C        C    0.37720000  0.87720000  0.81880000  0.00000000
C        C    0.12280000  0.18120000  0.37720000  0.00000000
C        C    0.31880000  0.12280000  0.87720000  0.00000000
C        C    0.81880000  0.87720000  0.62280000  0.00000000
C        C    0.12280000  0.81880000  0.62280000  0.00000000
C        C    0.31880000  0.87720000  0.12280000  0.00000000
C        C    0.37720000  0.81880000  0.12280000  0.00000000
C        C    0.87720000  0.81880000  0.37720000  0.00000000
C        C    0.37720000  0.12280000  0.81880000  0.00000000
C        C    0.87720000  0.12280000  0.68120000  0.00000000
C        C    0.62280000  0.62280000  0.31880000  0.00000000
C        C    0.12280000  0.18120000  0.62280000  0.00000000
C        C    0.62280000  0.81880000  0.87720000  0.00000000
C        C    0.12280000  0.62280000  0.18120000  0.00000000
C        C    0.68120000  0.62280000  0.62280000  0.00000000
C        C    0.12280000  0.68120000  0.87720000  0.00000000
C        C    0.31880000  0.87720000  0.87720000  0.00000000
C        C    0.87720000  0.18120000  0.37720000  0.00000000
C        C    0.87720000  0.62280000  0.81880000  0.00000000
C        C    0.81880000  0.62280000  0.87720000  0.00000000
C        C    0.37720000  0.37720000  0.68120000  0.00000000
C        C    0.12280000  0.68120000  0.12280000  0.00000000
C        C    0.37720000  0.62280000  0.31880000  0.00000000
C        C    0.62280000  0.37720000  0.68120000  0.00000000
C        C    0.12280000  0.12280000  0.31880000  0.00000000
C        C    0.31880000  0.37720000  0.62280000  0.00000000
C        C    0.31880000  0.62280000  0.37720000  0.00000000
C        C    0.87720000  0.81880000  0.62280000  0.00000000
C        C    0.81880000  0.12280000  0.37720000  0.00000000
C        C    0.62280000  0.18120000  0.12280000  0.00000000
C        C    0.37720000  0.18120000  0.87720000  0.00000000
C        C    0.87720000  0.87720000  0.31880000  0.00000000
C        C    0.87720000  0.31880000  0.87720000  0.00000000
C        C    0.37720000  0.81880000  0.87720000  0.00000000
C        C    0.81880000  0.37720000  0.87720000  0.00000000
C        C    0.37720000  0.31880000  0.37720000  0.00000000
C        C    0.12280000  0.37720000  0.18120000  0.00000000
C        C    0.12280000  0.87720000  0.68120000  0.00000000
C        C    0.12280000  0.12280000  0.68120000  0.00000000
C        C    0.62280000  0.68120000  0.62280000  0.00000000
C        C    0.31880000  0.37720000  0.37720000  0.00000000
C        C    0.87720000  0.68120000  0.87720000  0.00000000
C        C    0.68120000  0.87720000  0.12280000  0.00000000
C        C    0.62280000  0.31880000  0.37720000  0.00000000
C        C    0.18120000  0.87720000  0.62280000  0.00000000
C        C    0.31880000  0.62280000  0.62280000  0.00000000
C        C    0.87720000  0.37720000  0.81880000  0.00000000
C        C    0.81880000  0.12280000  0.62280000  0.00000000
C        C    0.18120000  0.12280000  0.37720000  0.00000000
C        C    0.62280000  0.12280000  0.81880000  0.00000000
C        C    0.37720000  0.68120000  0.62280000  0.00000000
C        C    0.18120000  0.87720000  0.37720000  0.00000000
C        C    0.37720000  0.18120000  0.12280000  0.00000000
C        C    0.62280000  0.87720000  0.18120000  0.00000000
C        C    0.37720000  0.62280000  0.68120000  0.00000000
C        C    0.18120000  0.37720000  0.87720000  0.00000000
C        C    0.37720000  0.87720000  0.18120000  0.00000000
C        C    0.12280000  0.87720000  0.31880000  0.00000000
C        C    0.81880000  0.87720000  0.37720000  0.00000000
C        C    0.18120000  0.62280000  0.12280000  0.00000000
C        C    0.12280000  0.31880000  0.87720000  0.00000000
C        C    0.68120000  0.12280000  0.12280000  0.00000000
C        C    0.62280000  0.12280000  0.18120000  0.00000000
C        C    0.37720000  0.37720000  0.31880000  0.00000000
C        C    0.18120000  0.62280000  0.87720000  0.00000000
C        C    0.81880000  0.62280000  0.12280000  0.00000000
C        C    0.87720000  0.12280000  0.31880000  0.00000000
C        C    0.62280000  0.18120000  0.87720000  0.00000000
C        C    0.62280000  0.62280000  0.68120000  0.00000000
C        C    0.68120000  0.37720000  0.62280000  0.00000000
C        C    0.81880000  0.37720000  0.12280000  0.00000000
C        C    0.68120000  0.12280000  0.87720000  0.00000000
C        C    0.68120000  0.87720000  0.87720000  0.00000000
C        C    0.62280000  0.68120000  0.37720000  0.00000000
C        C    0.62280000  0.87720000  0.81880000  0.00000000
C        C    0.87720000  0.18120000  0.62280000  0.00000000
C        C    0.31880000  0.12280000  0.12280000  0.00000000
C        C    0.12280000  0.81880000  0.37720000  0.00000000
C        C    0.12280000  0.62280000  0.81880000  0.00000000
C        C    0.18120000  0.37720000  0.12280000  0.00000000
C        C    0.12280000  0.31880000  0.12280000  0.00000000
C        C    0.62280000  0.37720000  0.31880000  0.00000000
C        C    0.68120000  0.62280000  0.37720000  0.00000000
C        C    0.62280000  0.81880000  0.12280000  0.00000000
C        C    0.87720000  0.68120000  0.12280000  0.00000000
C        C    0.84890000  0.37770000  0.15110000  0.00000000
C        C    0.12230000  0.65110000  0.84890000  0.00000000
C        C    0.12230000  0.34890000  0.84890000  0.00000000
C        C    0.34890000  0.62230000  0.65110000  0.00000000
C        C    0.65110000  0.65110000  0.62230000  0.00000000
C        C    0.87770000  0.34890000  0.15110000  0.00000000
C        C    0.62230000  0.34890000  0.34890000  0.00000000
C        C    0.15110000  0.15110000  0.62230000  0.00000000
C        C    0.65110000  0.34890000  0.62230000  0.00000000
C        C    0.37770000  0.34890000  0.65110000  0.00000000
C        C    0.34890000  0.84890000  0.12230000  0.00000000
C        C    0.12230000  0.65110000  0.15110000  0.00000000
C        C    0.12230000  0.84890000  0.65110000  0.00000000
C        C    0.34890000  0.62230000  0.34890000  0.00000000
C        C    0.34890000  0.12230000  0.84890000  0.00000000
C        C    0.84890000  0.84890000  0.62230000  0.00000000
C        C    0.84890000  0.15110000  0.37770000  0.00000000
C        C    0.84890000  0.87770000  0.65110000  0.00000000
C        C    0.12230000  0.15110000  0.34890000  0.00000000
C        C    0.34890000  0.15110000  0.87770000  0.00000000
C        C    0.84890000  0.12230000  0.65110000  0.00000000
C        C    0.62230000  0.15110000  0.15110000  0.00000000
C        C    0.34890000  0.87770000  0.15110000  0.00000000
C        C    0.87770000  0.15110000  0.65110000  0.00000000
C        C    0.65110000  0.62230000  0.34890000  0.00000000
C        C    0.34890000  0.84890000  0.87770000  0.00000000
C        C    0.84890000  0.84890000  0.37770000  0.00000000
C        C    0.12230000  0.15110000  0.65110000  0.00000000
C        C    0.34890000  0.87770000  0.84890000  0.00000000
C        C    0.87770000  0.65110000  0.84890000  0.00000000
C        C    0.84890000  0.62230000  0.84890000  0.00000000
C        C    0.34890000  0.37770000  0.65110000  0.00000000
C        C    0.15110000  0.37770000  0.15110000  0.00000000
C        C    0.37770000  0.65110000  0.34890000  0.00000000
C        C    0.62230000  0.34890000  0.65110000  0.00000000
C        C    0.15110000  0.12230000  0.34890000  0.00000000
C        C    0.34890000  0.34890000  0.62230000  0.00000000
C        C    0.34890000  0.65110000  0.37770000  0.00000000
C        C    0.87770000  0.84890000  0.65110000  0.00000000
C        C    0.15110000  0.65110000  0.87770000  0.00000000
C        C    0.65110000  0.15110000  0.12230000  0.00000000
C        C    0.37770000  0.15110000  0.84890000  0.00000000
C        C    0.84890000  0.12230000  0.34890000  0.00000000
C        C    0.62230000  0.84890000  0.84890000  0.00000000
C        C    0.87770000  0.84890000  0.34890000  0.00000000
C        C    0.87770000  0.34890000  0.84890000  0.00000000
C        C    0.37770000  0.84890000  0.84890000  0.00000000
C        C    0.84890000  0.34890000  0.87770000  0.00000000
C        C    0.84890000  0.62230000  0.15110000  0.00000000
C        C    0.34890000  0.34890000  0.37770000  0.00000000
C        C    0.15110000  0.87770000  0.65110000  0.00000000
C        C    0.15110000  0.12230000  0.65110000  0.00000000
C        C    0.34890000  0.37770000  0.34890000  0.00000000
C        C    0.12230000  0.84890000  0.34890000  0.00000000
C        C    0.15110000  0.37770000  0.84890000  0.00000000
C        C    0.84890000  0.65110000  0.87770000  0.00000000
C        C    0.65110000  0.87770000  0.15110000  0.00000000
C        C    0.65110000  0.34890000  0.37770000  0.00000000
C        C    0.15110000  0.84890000  0.62230000  0.00000000
C        C    0.84890000  0.37770000  0.84890000  0.00000000
C        C    0.15110000  0.15110000  0.37770000  0.00000000
C        C    0.65110000  0.12230000  0.84890000  0.00000000
C        C    0.34890000  0.12230000  0.15110000  0.00000000
C        C    0.34890000  0.65110000  0.62230000  0.00000000
C        C    0.15110000  0.62230000  0.15110000  0.00000000
C        C    0.37770000  0.15110000  0.15110000  0.00000000
C        C    0.62230000  0.84890000  0.15110000  0.00000000
C        C    0.62230000  0.65110000  0.65110000  0.00000000
C        C    0.37770000  0.65110000  0.65110000  0.00000000
C        C    0.37770000  0.84890000  0.15110000  0.00000000
C        C    0.15110000  0.87770000  0.34890000  0.00000000
C        C    0.84890000  0.87770000  0.34890000  0.00000000
C        C    0.15110000  0.65110000  0.12230000  0.00000000
C        C    0.15110000  0.34890000  0.87770000  0.00000000
C        C    0.65110000  0.12230000  0.15110000  0.00000000
C        C    0.37770000  0.34890000  0.34890000  0.00000000
C        C    0.87770000  0.15110000  0.34890000  0.00000000
C        C    0.62230000  0.15110000  0.84890000  0.00000000
C        C    0.84890000  0.65110000  0.12230000  0.00000000
C        C    0.65110000  0.62230000  0.65110000  0.00000000
C        C    0.65110000  0.37770000  0.65110000  0.00000000
C        C    0.84890000  0.34890000  0.12230000  0.00000000
C        C    0.65110000  0.15110000  0.87770000  0.00000000
C        C    0.65110000  0.84890000  0.87770000  0.00000000
C        C    0.62230000  0.65110000  0.34890000  0.00000000
C        C    0.65110000  0.87770000  0.84890000  0.00000000
C        C    0.84890000  0.15110000  0.62230000  0.00000000
C        C    0.34890000  0.15110000  0.12230000  0.00000000
C        C    0.15110000  0.84890000  0.37770000  0.00000000
C        C    0.15110000  0.62230000  0.84890000  0.00000000
C        C    0.15110000  0.34890000  0.12230000  0.00000000
C        C    0.12230000  0.34890000  0.15110000  0.00000000
C        C    0.65110000  0.37770000  0.34890000  0.00000000
C        C    0.65110000  0.65110000  0.37770000  0.00000000
C        C    0.65110000  0.84890000  0.12230000  0.00000000
C        C    0.87770000  0.65110000  0.15110000  0.00000000
H        H    0.84380000  0.39200000  0.15620000  0.00000000
H        H    0.10800000  0.65620000  0.84380000  0.00000000
H        H    0.10800000  0.34380000  0.84380000  0.00000000
H        H    0.34380000  0.60800000  0.65620000  0.00000000
H        H    0.65620000  0.65620000  0.60800000  0.00000000
H        H    0.89200000  0.34380000  0.15620000  0.00000000
H        H    0.60800000  0.34380000  0.34380000  0.00000000
H        H    0.15620000  0.15620000  0.60800000  0.00000000
H        H    0.65620000  0.34380000  0.60800000  0.00000000
H        H    0.39200000  0.34380000  0.65620000  0.00000000
H        H    0.34380000  0.84380000  0.10800000  0.00000000
H        H    0.10800000  0.65620000  0.15620000  0.00000000
H        H    0.10800000  0.84380000  0.65620000  0.00000000
H        H    0.34380000  0.60800000  0.34380000  0.00000000
H        H    0.34380000  0.10800000  0.84380000  0.00000000
H        H    0.84380000  0.84380000  0.60800000  0.00000000
H        H    0.84380000  0.15620000  0.39200000  0.00000000
H        H    0.84380000  0.89200000  0.65620000  0.00000000
H        H    0.10800000  0.15620000  0.34380000  0.00000000
H        H    0.34380000  0.15620000  0.89200000  0.00000000
H        H    0.84380000  0.10800000  0.65620000  0.00000000
H        H    0.60800000  0.15620000  0.15620000  0.00000000
H        H    0.34380000  0.89200000  0.15620000  0.00000000
H        H    0.89200000  0.15620000  0.65620000  0.00000000
H        H    0.65620000  0.60800000  0.34380000  0.00000000
H        H    0.34380000  0.84380000  0.89200000  0.00000000
H        H    0.84380000  0.84380000  0.39200000  0.00000000
H        H    0.10800000  0.15620000  0.65620000  0.00000000
H        H    0.34380000  0.89200000  0.84380000  0.00000000
H        H    0.89200000  0.65620000  0.84380000  0.00000000
H        H    0.84380000  0.60800000  0.84380000  0.00000000
H        H    0.34380000  0.39200000  0.65620000  0.00000000
H        H    0.15620000  0.39200000  0.15620000  0.00000000
H        H    0.39200000  0.65620000  0.34380000  0.00000000
H        H    0.60800000  0.34380000  0.65620000  0.00000000
H        H    0.15620000  0.10800000  0.34380000  0.00000000
H        H    0.34380000  0.34380000  0.60800000  0.00000000
H        H    0.34380000  0.65620000  0.39200000  0.00000000
H        H    0.89200000  0.84380000  0.65620000  0.00000000
H        H    0.15620000  0.65620000  0.89200000  0.00000000
H        H    0.65620000  0.15620000  0.10800000  0.00000000
H        H    0.39200000  0.15620000  0.84380000  0.00000000
H        H    0.84380000  0.10800000  0.34380000  0.00000000
H        H    0.60800000  0.84380000  0.84380000  0.00000000
H        H    0.89200000  0.84380000  0.34380000  0.00000000
H        H    0.89200000  0.34380000  0.84380000  0.00000000
H        H    0.39200000  0.84380000  0.84380000  0.00000000
H        H    0.84380000  0.34380000  0.89200000  0.00000000
H        H    0.84380000  0.60800000  0.15620000  0.00000000
H        H    0.34380000  0.34380000  0.39200000  0.00000000
H        H    0.15620000  0.89200000  0.65620000  0.00000000
H        H    0.15620000  0.10800000  0.65620000  0.00000000
H        H    0.34380000  0.39200000  0.34380000  0.00000000
H        H    0.10800000  0.84380000  0.34380000  0.00000000
H        H    0.15620000  0.39200000  0.84380000  0.00000000
H        H    0.84380000  0.65620000  0.89200000  0.00000000
H        H    0.65620000  0.89200000  0.15620000  0.00000000
H        H    0.65620000  0.34380000  0.39200000  0.00000000
H        H    0.15620000  0.84380000  0.60800000  0.00000000
H        H    0.84380000  0.39200000  0.84380000  0.00000000
H        H    0.15620000  0.15620000  0.39200000  0.00000000
H        H    0.65620000  0.10800000  0.84380000  0.00000000
H        H    0.34380000  0.10800000  0.15620000  0.00000000
H        H    0.34380000  0.65620000  0.60800000  0.00000000
H        H    0.15620000  0.60800000  0.15620000  0.00000000
H        H    0.39200000  0.15620000  0.15620000  0.00000000
H        H    0.60800000  0.84380000  0.15620000  0.00000000
H        H    0.60800000  0.65620000  0.65620000  0.00000000
H        H    0.39200000  0.65620000  0.65620000  0.00000000
H        H    0.39200000  0.84380000  0.15620000  0.00000000
H        H    0.15620000  0.89200000  0.34380000  0.00000000
H        H    0.84380000  0.89200000  0.34380000  0.00000000
H        H    0.15620000  0.65620000  0.10800000  0.00000000
H        H    0.15620000  0.34380000  0.89200000  0.00000000
H        H    0.65620000  0.10800000  0.15620000  0.00000000
H        H    0.39200000  0.34380000  0.34380000  0.00000000
H        H    0.89200000  0.15620000  0.34380000  0.00000000
H        H    0.60800000  0.15620000  0.84380000  0.00000000
H        H    0.84380000  0.65620000  0.10800000  0.00000000
H        H    0.65620000  0.60800000  0.65620000  0.00000000
H        H    0.65620000  0.39200000  0.65620000  0.00000000
H        H    0.84380000  0.34380000  0.10800000  0.00000000
H        H    0.65620000  0.15620000  0.89200000  0.00000000
H        H    0.65620000  0.84380000  0.89200000  0.00000000
H        H    0.60800000  0.65620000  0.34380000  0.00000000
H        H    0.65620000  0.89200000  0.84380000  0.00000000
H        H    0.84380000  0.15620000  0.60800000  0.00000000
H        H    0.34380000  0.15620000  0.10800000  0.00000000
H        H    0.15620000  0.84380000  0.39200000  0.00000000
H        H    0.15620000  0.60800000  0.84380000  0.00000000
H        H    0.15620000  0.34380000  0.10800000  0.00000000
H        H    0.10800000  0.34380000  0.15620000  0.00000000
H        H    0.65620000  0.39200000  0.34380000  0.00000000
H        H    0.65620000  0.65620000  0.39200000  0.00000000
H        H    0.65620000  0.84380000  0.10800000  0.00000000
H        H    0.89200000  0.65620000  0.15620000  0.00000000
C        C    0.86710000  0.86710000  0.66170000  0.00000000
C        C    0.36710000  0.13290000  0.16170000  0.00000000
C        C    0.86710000  0.36710000  0.16170000  0.00000000
C        C    0.86710000  0.63290000  0.16170000  0.00000000
C        C    0.66170000  0.36710000  0.36710000  0.00000000
C        C    0.86710000  0.33830000  0.13290000  0.00000000
C        C    0.16170000  0.13290000  0.63290000  0.00000000
C        C    0.13290000  0.36710000  0.83830000  0.00000000
C        C    0.63290000  0.33830000  0.63290000  0.00000000
C        C    0.36710000  0.66170000  0.36710000  0.00000000
C        C    0.36710000  0.33830000  0.63290000  0.00000000
C        C    0.36710000  0.86710000  0.83830000  0.00000000
C        C    0.13290000  0.16170000  0.36710000  0.00000000
C        C    0.33830000  0.13290000  0.86710000  0.00000000
C        C    0.83830000  0.86710000  0.63290000  0.00000000
C        C    0.13290000  0.83830000  0.63290000  0.00000000
C        C    0.33830000  0.86710000  0.13290000  0.00000000
C        C    0.36710000  0.83830000  0.13290000  0.00000000
C        C    0.86710000  0.83830000  0.36710000  0.00000000
C        C    0.36710000  0.13290000  0.83830000  0.00000000
C        C    0.86710000  0.13290000  0.66170000  0.00000000
C        C    0.63290000  0.63290000  0.33830000  0.00000000
C        C    0.13290000  0.16170000  0.63290000  0.00000000
C        C    0.63290000  0.83830000  0.86710000  0.00000000
C        C    0.13290000  0.63290000  0.16170000  0.00000000
C        C    0.66170000  0.63290000  0.63290000  0.00000000
C        C    0.13290000  0.66170000  0.86710000  0.00000000
C        C    0.33830000  0.86710000  0.86710000  0.00000000
C        C    0.86710000  0.16170000  0.36710000  0.00000000
C        C    0.86710000  0.63290000  0.83830000  0.00000000
C        C    0.83830000  0.63290000  0.86710000  0.00000000
C        C    0.36710000  0.36710000  0.66170000  0.00000000
C        C    0.13290000  0.66170000  0.13290000  0.00000000
C        C    0.36710000  0.63290000  0.33830000  0.00000000
C        C    0.63290000  0.36710000  0.66170000  0.00000000
C        C    0.13290000  0.13290000  0.33830000  0.00000000
C        C    0.33830000  0.36710000  0.63290000  0.00000000
C        C    0.33830000  0.63290000  0.36710000  0.00000000
C        C    0.86710000  0.83830000  0.63290000  0.00000000
C        C    0.83830000  0.13290000  0.36710000  0.00000000
C        C    0.63290000  0.16170000  0.13290000  0.00000000
C        C    0.36710000  0.16170000  0.86710000  0.00000000
C        C    0.86710000  0.86710000  0.33830000  0.00000000
C        C    0.86710000  0.33830000  0.86710000  0.00000000
C        C    0.36710000  0.83830000  0.86710000  0.00000000
C        C    0.83830000  0.36710000  0.86710000  0.00000000
C        C    0.36710000  0.33830000  0.36710000  0.00000000
C        C    0.13290000  0.36710000  0.16170000  0.00000000
C        C    0.13290000  0.86710000  0.66170000  0.00000000
C        C    0.13290000  0.13290000  0.66170000  0.00000000
C        C    0.63290000  0.66170000  0.63290000  0.00000000
C        C    0.33830000  0.36710000  0.36710000  0.00000000
C        C    0.86710000  0.66170000  0.86710000  0.00000000
C        C    0.66170000  0.86710000  0.13290000  0.00000000
C        C    0.63290000  0.33830000  0.36710000  0.00000000
C        C    0.16170000  0.86710000  0.63290000  0.00000000
C        C    0.33830000  0.63290000  0.63290000  0.00000000
C        C    0.86710000  0.36710000  0.83830000  0.00000000
C        C    0.83830000  0.13290000  0.63290000  0.00000000
C        C    0.16170000  0.13290000  0.36710000  0.00000000
C        C    0.63290000  0.13290000  0.83830000  0.00000000
C        C    0.36710000  0.66170000  0.63290000  0.00000000
C        C    0.16170000  0.86710000  0.36710000  0.00000000
C        C    0.36710000  0.16170000  0.13290000  0.00000000
C        C    0.63290000  0.86710000  0.16170000  0.00000000
C        C    0.36710000  0.63290000  0.66170000  0.00000000
C        C    0.16170000  0.36710000  0.86710000  0.00000000
C        C    0.36710000  0.86710000  0.16170000  0.00000000
C        C    0.13290000  0.86710000  0.33830000  0.00000000
C        C    0.83830000  0.86710000  0.36710000  0.00000000
C        C    0.16170000  0.63290000  0.13290000  0.00000000
C        C    0.13290000  0.33830000  0.86710000  0.00000000
C        C    0.66170000  0.13290000  0.13290000  0.00000000
C        C    0.63290000  0.13290000  0.16170000  0.00000000
C        C    0.36710000  0.36710000  0.33830000  0.00000000
C        C    0.16170000  0.63290000  0.86710000  0.00000000
C        C    0.83830000  0.63290000  0.13290000  0.00000000
C        C    0.86710000  0.13290000  0.33830000  0.00000000
C        C    0.63290000  0.16170000  0.86710000  0.00000000
C        C    0.63290000  0.63290000  0.66170000  0.00000000
C        C    0.66170000  0.36710000  0.63290000  0.00000000
C        C    0.83830000  0.36710000  0.13290000  0.00000000
C        C    0.66170000  0.13290000  0.86710000  0.00000000
C        C    0.66170000  0.86710000  0.86710000  0.00000000
C        C    0.63290000  0.66170000  0.36710000  0.00000000
C        C    0.63290000  0.86710000  0.83830000  0.00000000
C        C    0.86710000  0.16170000  0.63290000  0.00000000
C        C    0.33830000  0.13290000  0.13290000  0.00000000
C        C    0.13290000  0.83830000  0.36710000  0.00000000
C        C    0.13290000  0.63290000  0.83830000  0.00000000
C        C    0.16170000  0.36710000  0.13290000  0.00000000
C        C    0.13290000  0.33830000  0.13290000  0.00000000
C        C    0.63290000  0.36710000  0.33830000  0.00000000
C        C    0.66170000  0.63290000  0.36710000  0.00000000
C        C    0.63290000  0.83830000  0.13290000  0.00000000
C        C    0.86710000  0.66170000  0.13290000  0.00000000
