data_PCN-61

_cell_length_a  42.79580000
_cell_length_b  42.79580000
_cell_length_c  42.79580000
_cell_angle_alpha  90.00000000
_cell_angle_beta  90.00000000
_cell_angle_gamma  90.00000000


_symmetry_space_group_name_Hall ' P 1'
_symmetry_space_group_name_H-M  'P 1'
_symmetry_Int_Tables_number     1

loop_
_atom_site_label
_atom_site_type_symbol
_atom_site_fract_x
_atom_site_fract_y
_atom_site_fract_z
_atom_site_charge
Cu       Cu   0.00000000  0.36865000  0.36865000  0.00000000
Cu       Cu   0.36865000  0.13135000  0.50000000  0.00000000
Cu       Cu   0.13135000  0.00000000  0.86865000  0.00000000
Cu       Cu   0.13135000  0.86865000  0.00000000  0.00000000
Cu       Cu   0.86865000  0.50000000  0.63135000  0.00000000
Cu       Cu   0.86865000  0.63135000  0.50000000  0.00000000
Cu       Cu   0.63135000  0.13135000  0.50000000  0.00000000
Cu       Cu   0.00000000  0.13135000  0.13135000  0.00000000
Cu       Cu   0.36865000  0.86865000  0.50000000  0.00000000
Cu       Cu   0.50000000  0.86865000  0.36865000  0.00000000
Cu       Cu   0.63135000  0.63135000  0.00000000  0.00000000
Cu       Cu   0.13135000  0.50000000  0.36865000  0.00000000
Cu       Cu   0.13135000  0.36865000  0.50000000  0.00000000
Cu       Cu   0.13135000  0.63135000  0.50000000  0.00000000
Cu       Cu   0.00000000  0.86865000  0.86865000  0.00000000
Cu       Cu   0.36865000  0.00000000  0.63135000  0.00000000
Cu       Cu   0.13135000  0.50000000  0.63135000  0.00000000
Cu       Cu   0.63135000  0.00000000  0.63135000  0.00000000
Cu       Cu   0.50000000  0.13135000  0.63135000  0.00000000
Cu       Cu   0.36865000  0.36865000  0.00000000  0.00000000
Cu       Cu   0.63135000  0.00000000  0.36865000  0.00000000
Cu       Cu   0.63135000  0.50000000  0.86865000  0.00000000
Cu       Cu   0.36865000  0.50000000  0.86865000  0.00000000
Cu       Cu   0.36865000  0.00000000  0.36865000  0.00000000
Cu       Cu   0.00000000  0.13135000  0.86865000  0.00000000
Cu       Cu   0.86865000  0.13135000  0.00000000  0.00000000
Cu       Cu   0.50000000  0.13135000  0.36865000  0.00000000
Cu       Cu   0.36865000  0.63135000  0.00000000  0.00000000
Cu       Cu   0.86865000  0.00000000  0.13135000  0.00000000
Cu       Cu   0.50000000  0.36865000  0.86865000  0.00000000
Cu       Cu   0.63135000  0.36865000  0.00000000  0.00000000
Cu       Cu   0.00000000  0.86865000  0.13135000  0.00000000
Cu       Cu   0.50000000  0.63135000  0.86865000  0.00000000
Cu       Cu   0.86865000  0.36865000  0.50000000  0.00000000
Cu       Cu   0.63135000  0.50000000  0.13135000  0.00000000
Cu       Cu   0.86865000  0.00000000  0.86865000  0.00000000
Cu       Cu   0.63135000  0.86865000  0.50000000  0.00000000
Cu       Cu   0.50000000  0.86865000  0.63135000  0.00000000
Cu       Cu   0.00000000  0.36865000  0.63135000  0.00000000
Cu       Cu   0.13135000  0.00000000  0.13135000  0.00000000
Cu       Cu   0.00000000  0.63135000  0.36865000  0.00000000
Cu       Cu   0.00000000  0.63135000  0.63135000  0.00000000
Cu       Cu   0.36865000  0.50000000  0.13135000  0.00000000
Cu       Cu   0.13135000  0.13135000  0.00000000  0.00000000
Cu       Cu   0.50000000  0.36865000  0.13135000  0.00000000
Cu       Cu   0.86865000  0.50000000  0.36865000  0.00000000
Cu       Cu   0.50000000  0.63135000  0.13135000  0.00000000
Cu       Cu   0.86865000  0.86865000  0.00000000  0.00000000
Cu       Cu   0.00000000  0.32489000  0.32489000  0.00000000
Cu       Cu   0.32489000  0.17511000  0.50000000  0.00000000
Cu       Cu   0.17511000  0.00000000  0.82489000  0.00000000
Cu       Cu   0.17511000  0.82489000  0.00000000  0.00000000
Cu       Cu   0.82489000  0.50000000  0.67511000  0.00000000
Cu       Cu   0.82489000  0.67511000  0.50000000  0.00000000
Cu       Cu   0.67511000  0.17511000  0.50000000  0.00000000
Cu       Cu   0.00000000  0.17511000  0.17511000  0.00000000
Cu       Cu   0.32489000  0.82489000  0.50000000  0.00000000
Cu       Cu   0.50000000  0.82489000  0.32489000  0.00000000
Cu       Cu   0.67511000  0.67511000  0.00000000  0.00000000
Cu       Cu   0.17511000  0.50000000  0.32489000  0.00000000
Cu       Cu   0.17511000  0.32489000  0.50000000  0.00000000
Cu       Cu   0.17511000  0.67511000  0.50000000  0.00000000
Cu       Cu   0.00000000  0.82489000  0.82489000  0.00000000
Cu       Cu   0.32489000  0.00000000  0.67511000  0.00000000
Cu       Cu   0.17511000  0.50000000  0.67511000  0.00000000
Cu       Cu   0.67511000  0.00000000  0.67511000  0.00000000
Cu       Cu   0.50000000  0.17511000  0.67511000  0.00000000
Cu       Cu   0.32489000  0.32489000  0.00000000  0.00000000
Cu       Cu   0.67511000  0.00000000  0.32489000  0.00000000
Cu       Cu   0.67511000  0.50000000  0.82489000  0.00000000
Cu       Cu   0.32489000  0.50000000  0.82489000  0.00000000
Cu       Cu   0.32489000  0.00000000  0.32489000  0.00000000
Cu       Cu   0.00000000  0.17511000  0.82489000  0.00000000
Cu       Cu   0.82489000  0.17511000  0.00000000  0.00000000
Cu       Cu   0.50000000  0.17511000  0.32489000  0.00000000
Cu       Cu   0.32489000  0.67511000  0.00000000  0.00000000
Cu       Cu   0.82489000  0.00000000  0.17511000  0.00000000
Cu       Cu   0.50000000  0.32489000  0.82489000  0.00000000
Cu       Cu   0.67511000  0.32489000  0.00000000  0.00000000
Cu       Cu   0.00000000  0.82489000  0.17511000  0.00000000
Cu       Cu   0.50000000  0.67511000  0.82489000  0.00000000
Cu       Cu   0.82489000  0.32489000  0.50000000  0.00000000
Cu       Cu   0.67511000  0.50000000  0.17511000  0.00000000
Cu       Cu   0.82489000  0.00000000  0.82489000  0.00000000
Cu       Cu   0.67511000  0.82489000  0.50000000  0.00000000
Cu       Cu   0.50000000  0.82489000  0.67511000  0.00000000
Cu       Cu   0.00000000  0.32489000  0.67511000  0.00000000
Cu       Cu   0.17511000  0.00000000  0.17511000  0.00000000
Cu       Cu   0.00000000  0.67511000  0.32489000  0.00000000
Cu       Cu   0.00000000  0.67511000  0.67511000  0.00000000
Cu       Cu   0.32489000  0.50000000  0.17511000  0.00000000
Cu       Cu   0.17511000  0.17511000  0.00000000  0.00000000
Cu       Cu   0.50000000  0.32489000  0.17511000  0.00000000
Cu       Cu   0.82489000  0.50000000  0.32489000  0.00000000
Cu       Cu   0.50000000  0.67511000  0.17511000  0.00000000
Cu       Cu   0.82489000  0.82489000  0.00000000  0.00000000
O        O    0.84289000  0.53239000  0.61230000  0.00000000
O        O    0.46761000  0.11230000  0.34289000  0.00000000
O        O    0.65711000  0.53239000  0.88770000  0.00000000
O        O    0.11230000  0.15711000  0.96761000  0.00000000
O        O    0.96761000  0.38770000  0.34289000  0.00000000
O        O    0.88770000  0.96761000  0.84289000  0.00000000
O        O    0.88770000  0.15711000  0.03239000  0.00000000
O        O    0.11230000  0.84289000  0.96761000  0.00000000
O        O    0.96761000  0.88770000  0.84289000  0.00000000
O        O    0.96761000  0.61230000  0.34289000  0.00000000
O        O    0.65711000  0.38770000  0.03239000  0.00000000
O        O    0.11230000  0.53239000  0.65711000  0.00000000
O        O    0.11230000  0.03239000  0.84289000  0.00000000
O        O    0.96761000  0.65711000  0.38770000  0.00000000
O        O    0.34289000  0.88770000  0.46761000  0.00000000
O        O    0.65711000  0.96761000  0.61230000  0.00000000
O        O    0.46761000  0.11230000  0.65711000  0.00000000
O        O    0.46761000  0.84289000  0.38770000  0.00000000
O        O    0.11230000  0.46761000  0.65711000  0.00000000
O        O    0.84289000  0.46761000  0.61230000  0.00000000
O        O    0.46761000  0.88770000  0.34289000  0.00000000
O        O    0.34289000  0.11230000  0.46761000  0.00000000
O        O    0.84289000  0.61230000  0.46761000  0.00000000
O        O    0.46761000  0.61230000  0.84289000  0.00000000
O        O    0.38770000  0.96761000  0.65711000  0.00000000
O        O    0.84289000  0.03239000  0.11230000  0.00000000
O        O    0.15711000  0.61230000  0.46761000  0.00000000
O        O    0.15711000  0.61230000  0.53239000  0.00000000
O        O    0.61230000  0.15711000  0.53239000  0.00000000
O        O    0.53239000  0.65711000  0.88770000  0.00000000
O        O    0.53239000  0.84289000  0.61230000  0.00000000
O        O    0.34289000  0.11230000  0.53239000  0.00000000
O        O    0.15711000  0.03239000  0.88770000  0.00000000
O        O    0.11230000  0.53239000  0.34289000  0.00000000
O        O    0.84289000  0.46761000  0.38770000  0.00000000
O        O    0.65711000  0.11230000  0.53239000  0.00000000
O        O    0.96761000  0.88770000  0.15711000  0.00000000
O        O    0.38770000  0.46761000  0.84289000  0.00000000
O        O    0.53239000  0.84289000  0.38770000  0.00000000
O        O    0.61230000  0.46761000  0.15711000  0.00000000
O        O    0.96761000  0.15711000  0.88770000  0.00000000
O        O    0.11230000  0.96761000  0.15711000  0.00000000
O        O    0.38770000  0.03239000  0.34289000  0.00000000
O        O    0.03239000  0.34289000  0.61230000  0.00000000
O        O    0.61230000  0.03239000  0.65711000  0.00000000
O        O    0.88770000  0.34289000  0.53239000  0.00000000
O        O    0.88770000  0.46761000  0.34289000  0.00000000
O        O    0.88770000  0.53239000  0.34289000  0.00000000
O        O    0.38770000  0.84289000  0.53239000  0.00000000
O        O    0.61230000  0.15711000  0.46761000  0.00000000
O        O    0.84289000  0.38770000  0.46761000  0.00000000
O        O    0.96761000  0.15711000  0.11230000  0.00000000
O        O    0.03239000  0.38770000  0.34289000  0.00000000
O        O    0.34289000  0.03239000  0.61230000  0.00000000
O        O    0.61230000  0.65711000  0.03239000  0.00000000
O        O    0.46761000  0.38770000  0.15711000  0.00000000
O        O    0.46761000  0.65711000  0.11230000  0.00000000
O        O    0.88770000  0.46761000  0.65711000  0.00000000
O        O    0.61230000  0.53239000  0.15711000  0.00000000
O        O    0.03239000  0.38770000  0.65711000  0.00000000
O        O    0.11230000  0.65711000  0.53239000  0.00000000
O        O    0.53239000  0.15711000  0.61230000  0.00000000
O        O    0.38770000  0.15711000  0.53239000  0.00000000
O        O    0.15711000  0.46761000  0.38770000  0.00000000
O        O    0.38770000  0.84289000  0.46761000  0.00000000
O        O    0.46761000  0.15711000  0.61230000  0.00000000
O        O    0.03239000  0.34289000  0.38770000  0.00000000
O        O    0.15711000  0.96761000  0.11230000  0.00000000
O        O    0.96761000  0.34289000  0.38770000  0.00000000
O        O    0.11230000  0.84289000  0.03239000  0.00000000
O        O    0.96761000  0.61230000  0.65711000  0.00000000
O        O    0.38770000  0.15711000  0.46761000  0.00000000
O        O    0.46761000  0.88770000  0.65711000  0.00000000
O        O    0.11230000  0.34289000  0.46761000  0.00000000
O        O    0.61230000  0.03239000  0.34289000  0.00000000
O        O    0.11230000  0.96761000  0.84289000  0.00000000
O        O    0.46761000  0.61230000  0.15711000  0.00000000
O        O    0.15711000  0.11230000  0.96761000  0.00000000
O        O    0.84289000  0.96761000  0.11230000  0.00000000
O        O    0.15711000  0.38770000  0.53239000  0.00000000
O        O    0.96761000  0.65711000  0.61230000  0.00000000
O        O    0.65711000  0.03239000  0.38770000  0.00000000
O        O    0.46761000  0.65711000  0.88770000  0.00000000
O        O    0.65711000  0.88770000  0.53239000  0.00000000
O        O    0.53239000  0.38770000  0.84289000  0.00000000
O        O    0.11230000  0.03239000  0.15711000  0.00000000
O        O    0.46761000  0.34289000  0.11230000  0.00000000
O        O    0.88770000  0.84289000  0.96761000  0.00000000
O        O    0.46761000  0.34289000  0.88770000  0.00000000
O        O    0.03239000  0.65711000  0.61230000  0.00000000
O        O    0.96761000  0.11230000  0.84289000  0.00000000
O        O    0.61230000  0.34289000  0.03239000  0.00000000
O        O    0.15711000  0.88770000  0.03239000  0.00000000
O        O    0.38770000  0.65711000  0.03239000  0.00000000
O        O    0.88770000  0.65711000  0.46761000  0.00000000
O        O    0.38770000  0.03239000  0.65711000  0.00000000
O        O    0.88770000  0.03239000  0.84289000  0.00000000
O        O    0.53239000  0.61230000  0.15711000  0.00000000
O        O    0.65711000  0.38770000  0.96761000  0.00000000
O        O    0.15711000  0.96761000  0.88770000  0.00000000
O        O    0.03239000  0.15711000  0.11230000  0.00000000
O        O    0.65711000  0.96761000  0.38770000  0.00000000
O        O    0.11230000  0.34289000  0.53239000  0.00000000
O        O    0.61230000  0.65711000  0.96761000  0.00000000
O        O    0.03239000  0.61230000  0.34289000  0.00000000
O        O    0.84289000  0.61230000  0.53239000  0.00000000
O        O    0.03239000  0.84289000  0.88770000  0.00000000
O        O    0.15711000  0.88770000  0.96761000  0.00000000
O        O    0.88770000  0.34289000  0.46761000  0.00000000
O        O    0.88770000  0.53239000  0.65711000  0.00000000
O        O    0.65711000  0.61230000  0.96761000  0.00000000
O        O    0.46761000  0.38770000  0.84289000  0.00000000
O        O    0.34289000  0.38770000  0.03239000  0.00000000
O        O    0.03239000  0.84289000  0.11230000  0.00000000
O        O    0.38770000  0.53239000  0.15711000  0.00000000
O        O    0.61230000  0.46761000  0.84289000  0.00000000
O        O    0.03239000  0.11230000  0.15711000  0.00000000
O        O    0.15711000  0.46761000  0.61230000  0.00000000
O        O    0.15711000  0.53239000  0.38770000  0.00000000
O        O    0.88770000  0.65711000  0.53239000  0.00000000
O        O    0.65711000  0.11230000  0.46761000  0.00000000
O        O    0.34289000  0.53239000  0.88770000  0.00000000
O        O    0.53239000  0.34289000  0.11230000  0.00000000
O        O    0.38770000  0.34289000  0.96761000  0.00000000
O        O    0.96761000  0.11230000  0.15711000  0.00000000
O        O    0.61230000  0.96761000  0.65711000  0.00000000
O        O    0.34289000  0.88770000  0.53239000  0.00000000
O        O    0.88770000  0.96761000  0.15711000  0.00000000
O        O    0.53239000  0.88770000  0.34289000  0.00000000
O        O    0.84289000  0.11230000  0.96761000  0.00000000
O        O    0.88770000  0.15711000  0.96761000  0.00000000
O        O    0.38770000  0.65711000  0.96761000  0.00000000
O        O    0.65711000  0.46761000  0.88770000  0.00000000
O        O    0.65711000  0.61230000  0.03239000  0.00000000
O        O    0.46761000  0.15711000  0.38770000  0.00000000
O        O    0.11230000  0.46761000  0.34289000  0.00000000
O        O    0.03239000  0.88770000  0.84289000  0.00000000
O        O    0.03239000  0.11230000  0.84289000  0.00000000
O        O    0.61230000  0.84289000  0.53239000  0.00000000
O        O    0.15711000  0.38770000  0.46761000  0.00000000
O        O    0.11230000  0.65711000  0.46761000  0.00000000
O        O    0.34289000  0.38770000  0.96761000  0.00000000
O        O    0.96761000  0.84289000  0.88770000  0.00000000
O        O    0.84289000  0.88770000  0.03239000  0.00000000
O        O    0.53239000  0.15711000  0.38770000  0.00000000
O        O    0.34289000  0.96761000  0.61230000  0.00000000
O        O    0.15711000  0.53239000  0.61230000  0.00000000
O        O    0.96761000  0.38770000  0.65711000  0.00000000
O        O    0.65711000  0.03239000  0.61230000  0.00000000
O        O    0.34289000  0.03239000  0.38770000  0.00000000
O        O    0.53239000  0.11230000  0.65711000  0.00000000
O        O    0.15711000  0.11230000  0.03239000  0.00000000
O        O    0.46761000  0.84289000  0.61230000  0.00000000
O        O    0.34289000  0.96761000  0.38770000  0.00000000
O        O    0.34289000  0.61230000  0.03239000  0.00000000
O        O    0.38770000  0.34289000  0.03239000  0.00000000
O        O    0.61230000  0.96761000  0.34289000  0.00000000
O        O    0.61230000  0.53239000  0.84289000  0.00000000
O        O    0.38770000  0.53239000  0.84289000  0.00000000
O        O    0.34289000  0.46761000  0.88770000  0.00000000
O        O    0.38770000  0.96761000  0.34289000  0.00000000
O        O    0.03239000  0.88770000  0.15711000  0.00000000
O        O    0.65711000  0.88770000  0.46761000  0.00000000
O        O    0.34289000  0.53239000  0.11230000  0.00000000
O        O    0.03239000  0.15711000  0.88770000  0.00000000
O        O    0.84289000  0.11230000  0.03239000  0.00000000
O        O    0.53239000  0.11230000  0.34289000  0.00000000
O        O    0.38770000  0.46761000  0.15711000  0.00000000
O        O    0.34289000  0.61230000  0.96761000  0.00000000
O        O    0.65711000  0.53239000  0.11230000  0.00000000
O        O    0.88770000  0.03239000  0.15711000  0.00000000
O        O    0.53239000  0.34289000  0.88770000  0.00000000
O        O    0.61230000  0.34289000  0.96761000  0.00000000
O        O    0.96761000  0.84289000  0.11230000  0.00000000
O        O    0.53239000  0.61230000  0.84289000  0.00000000
O        O    0.84289000  0.38770000  0.53239000  0.00000000
O        O    0.65711000  0.46761000  0.11230000  0.00000000
O        O    0.84289000  0.03239000  0.88770000  0.00000000
O        O    0.84289000  0.88770000  0.96761000  0.00000000
O        O    0.84289000  0.96761000  0.88770000  0.00000000
O        O    0.61230000  0.84289000  0.46761000  0.00000000
O        O    0.53239000  0.88770000  0.65711000  0.00000000
O        O    0.96761000  0.34289000  0.61230000  0.00000000
O        O    0.15711000  0.03239000  0.11230000  0.00000000
O        O    0.03239000  0.65711000  0.38770000  0.00000000
O        O    0.03239000  0.61230000  0.65711000  0.00000000
O        O    0.34289000  0.46761000  0.11230000  0.00000000
O        O    0.11230000  0.15711000  0.03239000  0.00000000
O        O    0.53239000  0.38770000  0.15711000  0.00000000
O        O    0.84289000  0.53239000  0.38770000  0.00000000
O        O    0.53239000  0.65711000  0.11230000  0.00000000
O        O    0.88770000  0.84289000  0.03239000  0.00000000
O        O    0.80550000  0.53226000  0.64816000  0.00000000
O        O    0.46774000  0.14816000  0.30550000  0.00000000
O        O    0.69450000  0.53226000  0.85184000  0.00000000
O        O    0.14816000  0.19450000  0.96774000  0.00000000
O        O    0.96774000  0.35184000  0.30550000  0.00000000
O        O    0.85184000  0.96774000  0.80550000  0.00000000
O        O    0.85184000  0.19450000  0.03226000  0.00000000
O        O    0.14816000  0.80550000  0.96774000  0.00000000
O        O    0.96774000  0.85184000  0.80550000  0.00000000
O        O    0.96774000  0.64816000  0.30550000  0.00000000
O        O    0.69450000  0.35184000  0.03226000  0.00000000
O        O    0.14816000  0.53226000  0.69450000  0.00000000
O        O    0.14816000  0.03226000  0.80550000  0.00000000
O        O    0.96774000  0.69450000  0.35184000  0.00000000
O        O    0.30550000  0.85184000  0.46774000  0.00000000
O        O    0.69450000  0.96774000  0.64816000  0.00000000
O        O    0.46774000  0.14816000  0.69450000  0.00000000
O        O    0.46774000  0.80550000  0.35184000  0.00000000
O        O    0.14816000  0.46774000  0.69450000  0.00000000
O        O    0.80550000  0.46774000  0.64816000  0.00000000
O        O    0.46774000  0.85184000  0.30550000  0.00000000
O        O    0.30550000  0.14816000  0.46774000  0.00000000
O        O    0.80550000  0.64816000  0.46774000  0.00000000
O        O    0.46774000  0.64816000  0.80550000  0.00000000
O        O    0.35184000  0.96774000  0.69450000  0.00000000
O        O    0.80550000  0.03226000  0.14816000  0.00000000
O        O    0.19450000  0.64816000  0.46774000  0.00000000
O        O    0.19450000  0.64816000  0.53226000  0.00000000
O        O    0.64816000  0.19450000  0.53226000  0.00000000
O        O    0.53226000  0.69450000  0.85184000  0.00000000
O        O    0.53226000  0.80550000  0.64816000  0.00000000
O        O    0.30550000  0.14816000  0.53226000  0.00000000
O        O    0.19450000  0.03226000  0.85184000  0.00000000
O        O    0.14816000  0.53226000  0.30550000  0.00000000
O        O    0.80550000  0.46774000  0.35184000  0.00000000
O        O    0.69450000  0.14816000  0.53226000  0.00000000
O        O    0.96774000  0.85184000  0.19450000  0.00000000
O        O    0.35184000  0.46774000  0.80550000  0.00000000
O        O    0.53226000  0.80550000  0.35184000  0.00000000
O        O    0.64816000  0.46774000  0.19450000  0.00000000
O        O    0.96774000  0.19450000  0.85184000  0.00000000
O        O    0.14816000  0.96774000  0.19450000  0.00000000
O        O    0.35184000  0.03226000  0.30550000  0.00000000
O        O    0.03226000  0.30550000  0.64816000  0.00000000
O        O    0.64816000  0.03226000  0.69450000  0.00000000
O        O    0.85184000  0.30550000  0.53226000  0.00000000
O        O    0.85184000  0.46774000  0.30550000  0.00000000
O        O    0.85184000  0.53226000  0.30550000  0.00000000
O        O    0.35184000  0.80550000  0.53226000  0.00000000
O        O    0.64816000  0.19450000  0.46774000  0.00000000
O        O    0.80550000  0.35184000  0.46774000  0.00000000
O        O    0.96774000  0.19450000  0.14816000  0.00000000
O        O    0.03226000  0.35184000  0.30550000  0.00000000
O        O    0.30550000  0.03226000  0.64816000  0.00000000
O        O    0.64816000  0.69450000  0.03226000  0.00000000
O        O    0.46774000  0.35184000  0.19450000  0.00000000
O        O    0.46774000  0.69450000  0.14816000  0.00000000
O        O    0.85184000  0.46774000  0.69450000  0.00000000
O        O    0.64816000  0.53226000  0.19450000  0.00000000
O        O    0.03226000  0.35184000  0.69450000  0.00000000
O        O    0.14816000  0.69450000  0.53226000  0.00000000
O        O    0.53226000  0.19450000  0.64816000  0.00000000
O        O    0.35184000  0.19450000  0.53226000  0.00000000
O        O    0.19450000  0.46774000  0.35184000  0.00000000
O        O    0.35184000  0.80550000  0.46774000  0.00000000
O        O    0.46774000  0.19450000  0.64816000  0.00000000
O        O    0.03226000  0.30550000  0.35184000  0.00000000
O        O    0.19450000  0.96774000  0.14816000  0.00000000
O        O    0.96774000  0.30550000  0.35184000  0.00000000
O        O    0.14816000  0.80550000  0.03226000  0.00000000
O        O    0.96774000  0.64816000  0.69450000  0.00000000
O        O    0.35184000  0.19450000  0.46774000  0.00000000
O        O    0.46774000  0.85184000  0.69450000  0.00000000
O        O    0.14816000  0.30550000  0.46774000  0.00000000
O        O    0.64816000  0.03226000  0.30550000  0.00000000
O        O    0.14816000  0.96774000  0.80550000  0.00000000
O        O    0.46774000  0.64816000  0.19450000  0.00000000
O        O    0.19450000  0.14816000  0.96774000  0.00000000
O        O    0.80550000  0.96774000  0.14816000  0.00000000
O        O    0.19450000  0.35184000  0.53226000  0.00000000
O        O    0.96774000  0.69450000  0.64816000  0.00000000
O        O    0.69450000  0.03226000  0.35184000  0.00000000
O        O    0.46774000  0.69450000  0.85184000  0.00000000
O        O    0.69450000  0.85184000  0.53226000  0.00000000
O        O    0.53226000  0.35184000  0.80550000  0.00000000
O        O    0.14816000  0.03226000  0.19450000  0.00000000
O        O    0.46774000  0.30550000  0.14816000  0.00000000
O        O    0.85184000  0.80550000  0.96774000  0.00000000
O        O    0.46774000  0.30550000  0.85184000  0.00000000
O        O    0.03226000  0.69450000  0.64816000  0.00000000
O        O    0.96774000  0.14816000  0.80550000  0.00000000
O        O    0.64816000  0.30550000  0.03226000  0.00000000
O        O    0.19450000  0.85184000  0.03226000  0.00000000
O        O    0.35184000  0.69450000  0.03226000  0.00000000
O        O    0.85184000  0.69450000  0.46774000  0.00000000
O        O    0.35184000  0.03226000  0.69450000  0.00000000
O        O    0.85184000  0.03226000  0.80550000  0.00000000
O        O    0.53226000  0.64816000  0.19450000  0.00000000
O        O    0.69450000  0.35184000  0.96774000  0.00000000
O        O    0.19450000  0.96774000  0.85184000  0.00000000
O        O    0.03226000  0.19450000  0.14816000  0.00000000
O        O    0.69450000  0.96774000  0.35184000  0.00000000
O        O    0.14816000  0.30550000  0.53226000  0.00000000
O        O    0.64816000  0.69450000  0.96774000  0.00000000
O        O    0.03226000  0.64816000  0.30550000  0.00000000
O        O    0.80550000  0.64816000  0.53226000  0.00000000
O        O    0.03226000  0.80550000  0.85184000  0.00000000
O        O    0.19450000  0.85184000  0.96774000  0.00000000
O        O    0.85184000  0.30550000  0.46774000  0.00000000
O        O    0.85184000  0.53226000  0.69450000  0.00000000
O        O    0.69450000  0.64816000  0.96774000  0.00000000
O        O    0.46774000  0.35184000  0.80550000  0.00000000
O        O    0.30550000  0.35184000  0.03226000  0.00000000
O        O    0.03226000  0.80550000  0.14816000  0.00000000
O        O    0.35184000  0.53226000  0.19450000  0.00000000
O        O    0.64816000  0.46774000  0.80550000  0.00000000
O        O    0.03226000  0.14816000  0.19450000  0.00000000
O        O    0.19450000  0.46774000  0.64816000  0.00000000
O        O    0.19450000  0.53226000  0.35184000  0.00000000
O        O    0.85184000  0.69450000  0.53226000  0.00000000
O        O    0.69450000  0.14816000  0.46774000  0.00000000
O        O    0.30550000  0.53226000  0.85184000  0.00000000
O        O    0.53226000  0.30550000  0.14816000  0.00000000
O        O    0.35184000  0.30550000  0.96774000  0.00000000
O        O    0.96774000  0.14816000  0.19450000  0.00000000
O        O    0.64816000  0.96774000  0.69450000  0.00000000
O        O    0.30550000  0.85184000  0.53226000  0.00000000
O        O    0.85184000  0.96774000  0.19450000  0.00000000
O        O    0.53226000  0.85184000  0.30550000  0.00000000
O        O    0.80550000  0.14816000  0.96774000  0.00000000
O        O    0.85184000  0.19450000  0.96774000  0.00000000
O        O    0.35184000  0.69450000  0.96774000  0.00000000
O        O    0.69450000  0.46774000  0.85184000  0.00000000
O        O    0.69450000  0.64816000  0.03226000  0.00000000
O        O    0.46774000  0.19450000  0.35184000  0.00000000
O        O    0.14816000  0.46774000  0.30550000  0.00000000
O        O    0.03226000  0.85184000  0.80550000  0.00000000
O        O    0.03226000  0.14816000  0.80550000  0.00000000
O        O    0.64816000  0.80550000  0.53226000  0.00000000
O        O    0.19450000  0.35184000  0.46774000  0.00000000
O        O    0.14816000  0.69450000  0.46774000  0.00000000
O        O    0.30550000  0.35184000  0.96774000  0.00000000
O        O    0.96774000  0.80550000  0.85184000  0.00000000
O        O    0.80550000  0.85184000  0.03226000  0.00000000
O        O    0.53226000  0.19450000  0.35184000  0.00000000
O        O    0.30550000  0.96774000  0.64816000  0.00000000
O        O    0.19450000  0.53226000  0.64816000  0.00000000
O        O    0.96774000  0.35184000  0.69450000  0.00000000
O        O    0.69450000  0.03226000  0.64816000  0.00000000
O        O    0.30550000  0.03226000  0.35184000  0.00000000
O        O    0.53226000  0.14816000  0.69450000  0.00000000
O        O    0.19450000  0.14816000  0.03226000  0.00000000
O        O    0.46774000  0.80550000  0.64816000  0.00000000
O        O    0.30550000  0.96774000  0.35184000  0.00000000
O        O    0.30550000  0.64816000  0.03226000  0.00000000
O        O    0.35184000  0.30550000  0.03226000  0.00000000
O        O    0.64816000  0.96774000  0.30550000  0.00000000
O        O    0.64816000  0.53226000  0.80550000  0.00000000
O        O    0.35184000  0.53226000  0.80550000  0.00000000
O        O    0.30550000  0.46774000  0.85184000  0.00000000
O        O    0.35184000  0.96774000  0.30550000  0.00000000
O        O    0.03226000  0.85184000  0.19450000  0.00000000
O        O    0.69450000  0.85184000  0.46774000  0.00000000
O        O    0.30550000  0.53226000  0.14816000  0.00000000
O        O    0.03226000  0.19450000  0.85184000  0.00000000
O        O    0.80550000  0.14816000  0.03226000  0.00000000
O        O    0.53226000  0.14816000  0.30550000  0.00000000
O        O    0.35184000  0.46774000  0.19450000  0.00000000
O        O    0.30550000  0.64816000  0.96774000  0.00000000
O        O    0.69450000  0.53226000  0.14816000  0.00000000
O        O    0.85184000  0.03226000  0.19450000  0.00000000
O        O    0.53226000  0.30550000  0.85184000  0.00000000
O        O    0.64816000  0.30550000  0.96774000  0.00000000
O        O    0.96774000  0.80550000  0.14816000  0.00000000
O        O    0.53226000  0.64816000  0.80550000  0.00000000
O        O    0.80550000  0.35184000  0.53226000  0.00000000
O        O    0.69450000  0.46774000  0.14816000  0.00000000
O        O    0.80550000  0.03226000  0.85184000  0.00000000
O        O    0.80550000  0.85184000  0.96774000  0.00000000
O        O    0.80550000  0.96774000  0.85184000  0.00000000
O        O    0.64816000  0.80550000  0.46774000  0.00000000
O        O    0.53226000  0.85184000  0.69450000  0.00000000
O        O    0.96774000  0.30550000  0.64816000  0.00000000
O        O    0.19450000  0.03226000  0.14816000  0.00000000
O        O    0.03226000  0.69450000  0.35184000  0.00000000
O        O    0.03226000  0.64816000  0.69450000  0.00000000
O        O    0.30550000  0.46774000  0.14816000  0.00000000
O        O    0.14816000  0.19450000  0.03226000  0.00000000
O        O    0.53226000  0.35184000  0.19450000  0.00000000
O        O    0.80550000  0.53226000  0.35184000  0.00000000
O        O    0.53226000  0.69450000  0.14816000  0.00000000
O        O    0.85184000  0.80550000  0.03226000  0.00000000
C        C    0.81630000  0.54420000  0.62220000  0.00000000
C        C    0.45580000  0.12220000  0.31630000  0.00000000
C        C    0.68370000  0.54420000  0.87780000  0.00000000
C        C    0.12220000  0.18370000  0.95580000  0.00000000
C        C    0.95580000  0.37780000  0.31630000  0.00000000
C        C    0.87780000  0.95580000  0.81630000  0.00000000
C        C    0.87780000  0.18370000  0.04420000  0.00000000
C        C    0.12220000  0.81630000  0.95580000  0.00000000
C        C    0.95580000  0.87780000  0.81630000  0.00000000
C        C    0.95580000  0.62220000  0.31630000  0.00000000
C        C    0.68370000  0.37780000  0.04420000  0.00000000
C        C    0.12220000  0.54420000  0.68370000  0.00000000
C        C    0.12220000  0.04420000  0.81630000  0.00000000
C        C    0.95580000  0.68370000  0.37780000  0.00000000
C        C    0.31630000  0.87780000  0.45580000  0.00000000
C        C    0.68370000  0.95580000  0.62220000  0.00000000
C        C    0.45580000  0.12220000  0.68370000  0.00000000
C        C    0.45580000  0.81630000  0.37780000  0.00000000
C        C    0.12220000  0.45580000  0.68370000  0.00000000
C        C    0.81630000  0.45580000  0.62220000  0.00000000
C        C    0.45580000  0.87780000  0.31630000  0.00000000
C        C    0.31630000  0.12220000  0.45580000  0.00000000
C        C    0.81630000  0.62220000  0.45580000  0.00000000
C        C    0.45580000  0.62220000  0.81630000  0.00000000
C        C    0.37780000  0.95580000  0.68370000  0.00000000
C        C    0.81630000  0.04420000  0.12220000  0.00000000
C        C    0.18370000  0.62220000  0.45580000  0.00000000
C        C    0.18370000  0.62220000  0.54420000  0.00000000
C        C    0.62220000  0.18370000  0.54420000  0.00000000
C        C    0.54420000  0.68370000  0.87780000  0.00000000
C        C    0.54420000  0.81630000  0.62220000  0.00000000
C        C    0.31630000  0.12220000  0.54420000  0.00000000
C        C    0.18370000  0.04420000  0.87780000  0.00000000
C        C    0.12220000  0.54420000  0.31630000  0.00000000
C        C    0.81630000  0.45580000  0.37780000  0.00000000
C        C    0.68370000  0.12220000  0.54420000  0.00000000
C        C    0.95580000  0.87780000  0.18370000  0.00000000
C        C    0.37780000  0.45580000  0.81630000  0.00000000
C        C    0.54420000  0.81630000  0.37780000  0.00000000
C        C    0.62220000  0.45580000  0.18370000  0.00000000
C        C    0.95580000  0.18370000  0.87780000  0.00000000
C        C    0.12220000  0.95580000  0.18370000  0.00000000
C        C    0.37780000  0.04420000  0.31630000  0.00000000
C        C    0.04420000  0.31630000  0.62220000  0.00000000
C        C    0.62220000  0.04420000  0.68370000  0.00000000
C        C    0.87780000  0.31630000  0.54420000  0.00000000
C        C    0.87780000  0.45580000  0.31630000  0.00000000
C        C    0.87780000  0.54420000  0.31630000  0.00000000
C        C    0.37780000  0.81630000  0.54420000  0.00000000
C        C    0.62220000  0.18370000  0.45580000  0.00000000
C        C    0.81630000  0.37780000  0.45580000  0.00000000
C        C    0.95580000  0.18370000  0.12220000  0.00000000
C        C    0.04420000  0.37780000  0.31630000  0.00000000
C        C    0.31630000  0.04420000  0.62220000  0.00000000
C        C    0.62220000  0.68370000  0.04420000  0.00000000
C        C    0.45580000  0.37780000  0.18370000  0.00000000
C        C    0.45580000  0.68370000  0.12220000  0.00000000
C        C    0.87780000  0.45580000  0.68370000  0.00000000
C        C    0.62220000  0.54420000  0.18370000  0.00000000
C        C    0.04420000  0.37780000  0.68370000  0.00000000
C        C    0.12220000  0.68370000  0.54420000  0.00000000
C        C    0.54420000  0.18370000  0.62220000  0.00000000
C        C    0.37780000  0.18370000  0.54420000  0.00000000
C        C    0.18370000  0.45580000  0.37780000  0.00000000
C        C    0.37780000  0.81630000  0.45580000  0.00000000
C        C    0.45580000  0.18370000  0.62220000  0.00000000
C        C    0.04420000  0.31630000  0.37780000  0.00000000
C        C    0.18370000  0.95580000  0.12220000  0.00000000
C        C    0.95580000  0.31630000  0.37780000  0.00000000
C        C    0.12220000  0.81630000  0.04420000  0.00000000
C        C    0.95580000  0.62220000  0.68370000  0.00000000
C        C    0.37780000  0.18370000  0.45580000  0.00000000
C        C    0.45580000  0.87780000  0.68370000  0.00000000
C        C    0.12220000  0.31630000  0.45580000  0.00000000
C        C    0.62220000  0.04420000  0.31630000  0.00000000
C        C    0.12220000  0.95580000  0.81630000  0.00000000
C        C    0.45580000  0.62220000  0.18370000  0.00000000
C        C    0.18370000  0.12220000  0.95580000  0.00000000
C        C    0.81630000  0.95580000  0.12220000  0.00000000
C        C    0.18370000  0.37780000  0.54420000  0.00000000
C        C    0.95580000  0.68370000  0.62220000  0.00000000
C        C    0.68370000  0.04420000  0.37780000  0.00000000
C        C    0.45580000  0.68370000  0.87780000  0.00000000
C        C    0.68370000  0.87780000  0.54420000  0.00000000
C        C    0.54420000  0.37780000  0.81630000  0.00000000
C        C    0.12220000  0.04420000  0.18370000  0.00000000
C        C    0.45580000  0.31630000  0.12220000  0.00000000
C        C    0.87780000  0.81630000  0.95580000  0.00000000
C        C    0.45580000  0.31630000  0.87780000  0.00000000
C        C    0.04420000  0.68370000  0.62220000  0.00000000
C        C    0.95580000  0.12220000  0.81630000  0.00000000
C        C    0.62220000  0.31630000  0.04420000  0.00000000
C        C    0.18370000  0.87780000  0.04420000  0.00000000
C        C    0.37780000  0.68370000  0.04420000  0.00000000
C        C    0.87780000  0.68370000  0.45580000  0.00000000
C        C    0.37780000  0.04420000  0.68370000  0.00000000
C        C    0.87780000  0.04420000  0.81630000  0.00000000
C        C    0.54420000  0.62220000  0.18370000  0.00000000
C        C    0.68370000  0.37780000  0.95580000  0.00000000
C        C    0.18370000  0.95580000  0.87780000  0.00000000
C        C    0.04420000  0.18370000  0.12220000  0.00000000
C        C    0.68370000  0.95580000  0.37780000  0.00000000
C        C    0.12220000  0.31630000  0.54420000  0.00000000
C        C    0.62220000  0.68370000  0.95580000  0.00000000
C        C    0.04420000  0.62220000  0.31630000  0.00000000
C        C    0.81630000  0.62220000  0.54420000  0.00000000
C        C    0.04420000  0.81630000  0.87780000  0.00000000
C        C    0.18370000  0.87780000  0.95580000  0.00000000
C        C    0.87780000  0.31630000  0.45580000  0.00000000
C        C    0.87780000  0.54420000  0.68370000  0.00000000
C        C    0.68370000  0.62220000  0.95580000  0.00000000
C        C    0.45580000  0.37780000  0.81630000  0.00000000
C        C    0.31630000  0.37780000  0.04420000  0.00000000
C        C    0.04420000  0.81630000  0.12220000  0.00000000
C        C    0.37780000  0.54420000  0.18370000  0.00000000
C        C    0.62220000  0.45580000  0.81630000  0.00000000
C        C    0.04420000  0.12220000  0.18370000  0.00000000
C        C    0.18370000  0.45580000  0.62220000  0.00000000
C        C    0.18370000  0.54420000  0.37780000  0.00000000
C        C    0.87780000  0.68370000  0.54420000  0.00000000
C        C    0.68370000  0.12220000  0.45580000  0.00000000
C        C    0.31630000  0.54420000  0.87780000  0.00000000
C        C    0.54420000  0.31630000  0.12220000  0.00000000
C        C    0.37780000  0.31630000  0.95580000  0.00000000
C        C    0.95580000  0.12220000  0.18370000  0.00000000
C        C    0.62220000  0.95580000  0.68370000  0.00000000
C        C    0.31630000  0.87780000  0.54420000  0.00000000
C        C    0.87780000  0.95580000  0.18370000  0.00000000
C        C    0.54420000  0.87780000  0.31630000  0.00000000
C        C    0.81630000  0.12220000  0.95580000  0.00000000
C        C    0.87780000  0.18370000  0.95580000  0.00000000
C        C    0.37780000  0.68370000  0.95580000  0.00000000
C        C    0.68370000  0.45580000  0.87780000  0.00000000
C        C    0.68370000  0.62220000  0.04420000  0.00000000
C        C    0.45580000  0.18370000  0.37780000  0.00000000
C        C    0.12220000  0.45580000  0.31630000  0.00000000
C        C    0.04420000  0.87780000  0.81630000  0.00000000
C        C    0.04420000  0.12220000  0.81630000  0.00000000
C        C    0.62220000  0.81630000  0.54420000  0.00000000
C        C    0.18370000  0.37780000  0.45580000  0.00000000
C        C    0.12220000  0.68370000  0.45580000  0.00000000
C        C    0.31630000  0.37780000  0.95580000  0.00000000
C        C    0.95580000  0.81630000  0.87780000  0.00000000
C        C    0.81630000  0.87780000  0.04420000  0.00000000
C        C    0.54420000  0.18370000  0.37780000  0.00000000
C        C    0.31630000  0.95580000  0.62220000  0.00000000
C        C    0.18370000  0.54420000  0.62220000  0.00000000
C        C    0.95580000  0.37780000  0.68370000  0.00000000
C        C    0.68370000  0.04420000  0.62220000  0.00000000
C        C    0.31630000  0.04420000  0.37780000  0.00000000
C        C    0.54420000  0.12220000  0.68370000  0.00000000
C        C    0.18370000  0.12220000  0.04420000  0.00000000
C        C    0.45580000  0.81630000  0.62220000  0.00000000
C        C    0.31630000  0.95580000  0.37780000  0.00000000
C        C    0.31630000  0.62220000  0.04420000  0.00000000
C        C    0.37780000  0.31630000  0.04420000  0.00000000
C        C    0.62220000  0.95580000  0.31630000  0.00000000
C        C    0.62220000  0.54420000  0.81630000  0.00000000
C        C    0.37780000  0.54420000  0.81630000  0.00000000
C        C    0.31630000  0.45580000  0.87780000  0.00000000
C        C    0.37780000  0.95580000  0.31630000  0.00000000
C        C    0.04420000  0.87780000  0.18370000  0.00000000
C        C    0.68370000  0.87780000  0.45580000  0.00000000
C        C    0.31630000  0.54420000  0.12220000  0.00000000
C        C    0.04420000  0.18370000  0.87780000  0.00000000
C        C    0.81630000  0.12220000  0.04420000  0.00000000
C        C    0.54420000  0.12220000  0.31630000  0.00000000
C        C    0.37780000  0.45580000  0.18370000  0.00000000
C        C    0.31630000  0.62220000  0.95580000  0.00000000
C        C    0.68370000  0.54420000  0.12220000  0.00000000
C        C    0.87780000  0.04420000  0.18370000  0.00000000
C        C    0.54420000  0.31630000  0.87780000  0.00000000
C        C    0.62220000  0.31630000  0.95580000  0.00000000
C        C    0.95580000  0.81630000  0.12220000  0.00000000
C        C    0.54420000  0.62220000  0.81630000  0.00000000
C        C    0.81630000  0.37780000  0.54420000  0.00000000
C        C    0.68370000  0.45580000  0.12220000  0.00000000
C        C    0.81630000  0.04420000  0.87780000  0.00000000
C        C    0.81630000  0.87780000  0.95580000  0.00000000
C        C    0.81630000  0.95580000  0.87780000  0.00000000
C        C    0.62220000  0.81630000  0.45580000  0.00000000
C        C    0.54420000  0.87780000  0.68370000  0.00000000
C        C    0.95580000  0.31630000  0.62220000  0.00000000
C        C    0.18370000  0.04420000  0.12220000  0.00000000
C        C    0.04420000  0.68370000  0.37780000  0.00000000
C        C    0.04420000  0.62220000  0.68370000  0.00000000
C        C    0.31630000  0.45580000  0.12220000  0.00000000
C        C    0.12220000  0.18370000  0.04420000  0.00000000
C        C    0.54420000  0.37780000  0.18370000  0.00000000
C        C    0.81630000  0.54420000  0.37780000  0.00000000
C        C    0.54420000  0.68370000  0.12220000  0.00000000
C        C    0.87780000  0.81630000  0.04420000  0.00000000
C        C    0.91970000  0.91970000  0.81590000  0.00000000
C        C    0.41970000  0.08030000  0.31590000  0.00000000
C        C    0.91970000  0.41970000  0.31590000  0.00000000
C        C    0.91970000  0.58030000  0.31590000  0.00000000
C        C    0.81590000  0.41970000  0.41970000  0.00000000
C        C    0.91970000  0.18410000  0.08030000  0.00000000
C        C    0.31590000  0.08030000  0.58030000  0.00000000
C        C    0.08030000  0.41970000  0.68410000  0.00000000
C        C    0.58030000  0.18410000  0.58030000  0.00000000
C        C    0.41970000  0.81590000  0.41970000  0.00000000
C        C    0.41970000  0.18410000  0.58030000  0.00000000
C        C    0.41970000  0.91970000  0.68410000  0.00000000
C        C    0.08030000  0.31590000  0.41970000  0.00000000
C        C    0.18410000  0.08030000  0.91970000  0.00000000
C        C    0.68410000  0.91970000  0.58030000  0.00000000
C        C    0.08030000  0.68410000  0.58030000  0.00000000
C        C    0.18410000  0.91970000  0.08030000  0.00000000
C        C    0.41970000  0.68410000  0.08030000  0.00000000
C        C    0.91970000  0.68410000  0.41970000  0.00000000
C        C    0.41970000  0.08030000  0.68410000  0.00000000
C        C    0.91970000  0.08030000  0.81590000  0.00000000
C        C    0.58030000  0.58030000  0.18410000  0.00000000
C        C    0.08030000  0.31590000  0.58030000  0.00000000
C        C    0.58030000  0.68410000  0.91970000  0.00000000
C        C    0.08030000  0.58030000  0.31590000  0.00000000
C        C    0.81590000  0.58030000  0.58030000  0.00000000
C        C    0.08030000  0.81590000  0.91970000  0.00000000
C        C    0.18410000  0.91970000  0.91970000  0.00000000
C        C    0.91970000  0.31590000  0.41970000  0.00000000
C        C    0.91970000  0.58030000  0.68410000  0.00000000
C        C    0.68410000  0.58030000  0.91970000  0.00000000
C        C    0.41970000  0.41970000  0.81590000  0.00000000
C        C    0.08030000  0.81590000  0.08030000  0.00000000
C        C    0.41970000  0.58030000  0.18410000  0.00000000
C        C    0.58030000  0.41970000  0.81590000  0.00000000
C        C    0.08030000  0.08030000  0.18410000  0.00000000
C        C    0.18410000  0.41970000  0.58030000  0.00000000
C        C    0.18410000  0.58030000  0.41970000  0.00000000
C        C    0.91970000  0.68410000  0.58030000  0.00000000
C        C    0.68410000  0.08030000  0.41970000  0.00000000
C        C    0.58030000  0.31590000  0.08030000  0.00000000
C        C    0.41970000  0.31590000  0.91970000  0.00000000
C        C    0.91970000  0.91970000  0.18410000  0.00000000
C        C    0.91970000  0.18410000  0.91970000  0.00000000
C        C    0.41970000  0.68410000  0.91970000  0.00000000
C        C    0.68410000  0.41970000  0.91970000  0.00000000
C        C    0.41970000  0.18410000  0.41970000  0.00000000
C        C    0.08030000  0.41970000  0.31590000  0.00000000
C        C    0.08030000  0.91970000  0.81590000  0.00000000
C        C    0.08030000  0.08030000  0.81590000  0.00000000
C        C    0.58030000  0.81590000  0.58030000  0.00000000
C        C    0.18410000  0.41970000  0.41970000  0.00000000
C        C    0.91970000  0.81590000  0.91970000  0.00000000
C        C    0.81590000  0.91970000  0.08030000  0.00000000
C        C    0.58030000  0.18410000  0.41970000  0.00000000
C        C    0.31590000  0.91970000  0.58030000  0.00000000
C        C    0.18410000  0.58030000  0.58030000  0.00000000
C        C    0.91970000  0.41970000  0.68410000  0.00000000
C        C    0.68410000  0.08030000  0.58030000  0.00000000
C        C    0.31590000  0.08030000  0.41970000  0.00000000
C        C    0.58030000  0.08030000  0.68410000  0.00000000
C        C    0.41970000  0.81590000  0.58030000  0.00000000
C        C    0.31590000  0.91970000  0.41970000  0.00000000
C        C    0.41970000  0.31590000  0.08030000  0.00000000
C        C    0.58030000  0.91970000  0.31590000  0.00000000
C        C    0.41970000  0.58030000  0.81590000  0.00000000
C        C    0.31590000  0.41970000  0.91970000  0.00000000
C        C    0.41970000  0.91970000  0.31590000  0.00000000
C        C    0.08030000  0.91970000  0.18410000  0.00000000
C        C    0.68410000  0.91970000  0.41970000  0.00000000
C        C    0.31590000  0.58030000  0.08030000  0.00000000
C        C    0.08030000  0.18410000  0.91970000  0.00000000
C        C    0.81590000  0.08030000  0.08030000  0.00000000
C        C    0.58030000  0.08030000  0.31590000  0.00000000
C        C    0.41970000  0.41970000  0.18410000  0.00000000
C        C    0.31590000  0.58030000  0.91970000  0.00000000
C        C    0.68410000  0.58030000  0.08030000  0.00000000
C        C    0.91970000  0.08030000  0.18410000  0.00000000
C        C    0.58030000  0.31590000  0.91970000  0.00000000
C        C    0.58030000  0.58030000  0.81590000  0.00000000
C        C    0.81590000  0.41970000  0.58030000  0.00000000
C        C    0.68410000  0.41970000  0.08030000  0.00000000
C        C    0.81590000  0.08030000  0.91970000  0.00000000
C        C    0.81590000  0.91970000  0.91970000  0.00000000
C        C    0.58030000  0.81590000  0.41970000  0.00000000
C        C    0.58030000  0.91970000  0.68410000  0.00000000
C        C    0.91970000  0.31590000  0.58030000  0.00000000
C        C    0.18410000  0.08030000  0.08030000  0.00000000
C        C    0.08030000  0.68410000  0.41970000  0.00000000
C        C    0.08030000  0.58030000  0.68410000  0.00000000
C        C    0.31590000  0.41970000  0.08030000  0.00000000
C        C    0.08030000  0.18410000  0.08030000  0.00000000
C        C    0.58030000  0.41970000  0.18410000  0.00000000
C        C    0.81590000  0.58030000  0.41970000  0.00000000
C        C    0.58030000  0.68410000  0.08030000  0.00000000
C        C    0.91970000  0.81590000  0.08030000  0.00000000
H        H    0.92840000  0.92840000  0.83440000  0.00000000
H        H    0.42840000  0.07160000  0.33440000  0.00000000
H        H    0.92840000  0.42840000  0.33440000  0.00000000
H        H    0.92840000  0.57160000  0.33440000  0.00000000
H        H    0.83440000  0.42840000  0.42840000  0.00000000
H        H    0.92840000  0.16560000  0.07160000  0.00000000
H        H    0.33440000  0.07160000  0.57160000  0.00000000
H        H    0.07160000  0.42840000  0.66560000  0.00000000
H        H    0.57160000  0.16560000  0.57160000  0.00000000
H        H    0.42840000  0.83440000  0.42840000  0.00000000
H        H    0.42840000  0.16560000  0.57160000  0.00000000
H        H    0.42840000  0.92840000  0.66560000  0.00000000
H        H    0.07160000  0.33440000  0.42840000  0.00000000
H        H    0.16560000  0.07160000  0.92840000  0.00000000
H        H    0.66560000  0.92840000  0.57160000  0.00000000
H        H    0.07160000  0.66560000  0.57160000  0.00000000
H        H    0.16560000  0.92840000  0.07160000  0.00000000
H        H    0.42840000  0.66560000  0.07160000  0.00000000
H        H    0.92840000  0.66560000  0.42840000  0.00000000
H        H    0.42840000  0.07160000  0.66560000  0.00000000
H        H    0.92840000  0.07160000  0.83440000  0.00000000
H        H    0.57160000  0.57160000  0.16560000  0.00000000
H        H    0.07160000  0.33440000  0.57160000  0.00000000
H        H    0.57160000  0.66560000  0.92840000  0.00000000
H        H    0.07160000  0.57160000  0.33440000  0.00000000
H        H    0.83440000  0.57160000  0.57160000  0.00000000
H        H    0.07160000  0.83440000  0.92840000  0.00000000
H        H    0.16560000  0.92840000  0.92840000  0.00000000
H        H    0.92840000  0.33440000  0.42840000  0.00000000
H        H    0.92840000  0.57160000  0.66560000  0.00000000
H        H    0.66560000  0.57160000  0.92840000  0.00000000
H        H    0.42840000  0.42840000  0.83440000  0.00000000
H        H    0.07160000  0.83440000  0.07160000  0.00000000
H        H    0.42840000  0.57160000  0.16560000  0.00000000
H        H    0.57160000  0.42840000  0.83440000  0.00000000
H        H    0.07160000  0.07160000  0.16560000  0.00000000
H        H    0.16560000  0.42840000  0.57160000  0.00000000
H        H    0.16560000  0.57160000  0.42840000  0.00000000
H        H    0.92840000  0.66560000  0.57160000  0.00000000
H        H    0.66560000  0.07160000  0.42840000  0.00000000
H        H    0.57160000  0.33440000  0.07160000  0.00000000
H        H    0.42840000  0.33440000  0.92840000  0.00000000
H        H    0.92840000  0.92840000  0.16560000  0.00000000
H        H    0.92840000  0.16560000  0.92840000  0.00000000
H        H    0.42840000  0.66560000  0.92840000  0.00000000
H        H    0.66560000  0.42840000  0.92840000  0.00000000
H        H    0.42840000  0.16560000  0.42840000  0.00000000
H        H    0.07160000  0.42840000  0.33440000  0.00000000
H        H    0.07160000  0.92840000  0.83440000  0.00000000
H        H    0.07160000  0.07160000  0.83440000  0.00000000
H        H    0.57160000  0.83440000  0.57160000  0.00000000
H        H    0.16560000  0.42840000  0.42840000  0.00000000
H        H    0.92840000  0.83440000  0.92840000  0.00000000
H        H    0.83440000  0.92840000  0.07160000  0.00000000
H        H    0.57160000  0.16560000  0.42840000  0.00000000
H        H    0.33440000  0.92840000  0.57160000  0.00000000
H        H    0.16560000  0.57160000  0.57160000  0.00000000
H        H    0.92840000  0.42840000  0.66560000  0.00000000
H        H    0.66560000  0.07160000  0.57160000  0.00000000
H        H    0.33440000  0.07160000  0.42840000  0.00000000
H        H    0.57160000  0.07160000  0.66560000  0.00000000
H        H    0.42840000  0.83440000  0.57160000  0.00000000
H        H    0.33440000  0.92840000  0.42840000  0.00000000
H        H    0.42840000  0.33440000  0.07160000  0.00000000
H        H    0.57160000  0.92840000  0.33440000  0.00000000
H        H    0.42840000  0.57160000  0.83440000  0.00000000
H        H    0.33440000  0.42840000  0.92840000  0.00000000
H        H    0.42840000  0.92840000  0.33440000  0.00000000
H        H    0.07160000  0.92840000  0.16560000  0.00000000
H        H    0.66560000  0.92840000  0.42840000  0.00000000
H        H    0.33440000  0.57160000  0.07160000  0.00000000
H        H    0.07160000  0.16560000  0.92840000  0.00000000
H        H    0.83440000  0.07160000  0.07160000  0.00000000
H        H    0.57160000  0.07160000  0.33440000  0.00000000
H        H    0.42840000  0.42840000  0.16560000  0.00000000
H        H    0.33440000  0.57160000  0.92840000  0.00000000
H        H    0.66560000  0.57160000  0.07160000  0.00000000
H        H    0.92840000  0.07160000  0.16560000  0.00000000
H        H    0.57160000  0.33440000  0.92840000  0.00000000
H        H    0.57160000  0.57160000  0.83440000  0.00000000
H        H    0.83440000  0.42840000  0.57160000  0.00000000
H        H    0.66560000  0.42840000  0.07160000  0.00000000
H        H    0.83440000  0.07160000  0.92840000  0.00000000
H        H    0.83440000  0.92840000  0.92840000  0.00000000
H        H    0.57160000  0.83440000  0.42840000  0.00000000
H        H    0.57160000  0.92840000  0.66560000  0.00000000
H        H    0.92840000  0.33440000  0.57160000  0.00000000
H        H    0.16560000  0.07160000  0.07160000  0.00000000
H        H    0.07160000  0.66560000  0.42840000  0.00000000
H        H    0.07160000  0.57160000  0.66560000  0.00000000
H        H    0.33440000  0.42840000  0.07160000  0.00000000
H        H    0.07160000  0.16560000  0.07160000  0.00000000
H        H    0.57160000  0.42840000  0.16560000  0.00000000
H        H    0.83440000  0.57160000  0.42840000  0.00000000
H        H    0.57160000  0.66560000  0.07160000  0.00000000
H        H    0.92840000  0.83440000  0.07160000  0.00000000
C        C    0.79980000  0.57000000  0.60560000  0.00000000
C        C    0.43000000  0.10560000  0.29980000  0.00000000
C        C    0.70020000  0.57000000  0.89440000  0.00000000
C        C    0.10560000  0.20020000  0.93000000  0.00000000
C        C    0.93000000  0.39440000  0.29980000  0.00000000
C        C    0.89440000  0.93000000  0.79980000  0.00000000
C        C    0.89440000  0.20020000  0.07000000  0.00000000
C        C    0.10560000  0.79980000  0.93000000  0.00000000
C        C    0.93000000  0.89440000  0.79980000  0.00000000
C        C    0.93000000  0.60560000  0.29980000  0.00000000
C        C    0.70020000  0.39440000  0.07000000  0.00000000
C        C    0.10560000  0.57000000  0.70020000  0.00000000
C        C    0.10560000  0.07000000  0.79980000  0.00000000
C        C    0.93000000  0.70020000  0.39440000  0.00000000
C        C    0.29980000  0.89440000  0.43000000  0.00000000
C        C    0.70020000  0.93000000  0.60560000  0.00000000
C        C    0.43000000  0.10560000  0.70020000  0.00000000
C        C    0.43000000  0.79980000  0.39440000  0.00000000
C        C    0.10560000  0.43000000  0.70020000  0.00000000
C        C    0.79980000  0.43000000  0.60560000  0.00000000
C        C    0.43000000  0.89440000  0.29980000  0.00000000
C        C    0.29980000  0.10560000  0.43000000  0.00000000
C        C    0.79980000  0.60560000  0.43000000  0.00000000
C        C    0.43000000  0.60560000  0.79980000  0.00000000
C        C    0.39440000  0.93000000  0.70020000  0.00000000
C        C    0.79980000  0.07000000  0.10560000  0.00000000
C        C    0.20020000  0.60560000  0.43000000  0.00000000
C        C    0.20020000  0.60560000  0.57000000  0.00000000
C        C    0.60560000  0.20020000  0.57000000  0.00000000
C        C    0.57000000  0.70020000  0.89440000  0.00000000
C        C    0.57000000  0.79980000  0.60560000  0.00000000
C        C    0.29980000  0.10560000  0.57000000  0.00000000
C        C    0.20020000  0.07000000  0.89440000  0.00000000
C        C    0.10560000  0.57000000  0.29980000  0.00000000
C        C    0.79980000  0.43000000  0.39440000  0.00000000
C        C    0.70020000  0.10560000  0.57000000  0.00000000
C        C    0.93000000  0.89440000  0.20020000  0.00000000
C        C    0.39440000  0.43000000  0.79980000  0.00000000
C        C    0.57000000  0.79980000  0.39440000  0.00000000
C        C    0.60560000  0.43000000  0.20020000  0.00000000
C        C    0.93000000  0.20020000  0.89440000  0.00000000
C        C    0.10560000  0.93000000  0.20020000  0.00000000
C        C    0.39440000  0.07000000  0.29980000  0.00000000
C        C    0.07000000  0.29980000  0.60560000  0.00000000
C        C    0.60560000  0.07000000  0.70020000  0.00000000
C        C    0.89440000  0.29980000  0.57000000  0.00000000
C        C    0.89440000  0.43000000  0.29980000  0.00000000
C        C    0.89440000  0.57000000  0.29980000  0.00000000
C        C    0.39440000  0.79980000  0.57000000  0.00000000
C        C    0.60560000  0.20020000  0.43000000  0.00000000
C        C    0.79980000  0.39440000  0.43000000  0.00000000
C        C    0.93000000  0.20020000  0.10560000  0.00000000
C        C    0.07000000  0.39440000  0.29980000  0.00000000
C        C    0.29980000  0.07000000  0.60560000  0.00000000
C        C    0.60560000  0.70020000  0.07000000  0.00000000
C        C    0.43000000  0.39440000  0.20020000  0.00000000
C        C    0.43000000  0.70020000  0.10560000  0.00000000
C        C    0.89440000  0.43000000  0.70020000  0.00000000
C        C    0.60560000  0.57000000  0.20020000  0.00000000
C        C    0.07000000  0.39440000  0.70020000  0.00000000
C        C    0.10560000  0.70020000  0.57000000  0.00000000
C        C    0.57000000  0.20020000  0.60560000  0.00000000
C        C    0.39440000  0.20020000  0.57000000  0.00000000
C        C    0.20020000  0.43000000  0.39440000  0.00000000
C        C    0.39440000  0.79980000  0.43000000  0.00000000
C        C    0.43000000  0.20020000  0.60560000  0.00000000
C        C    0.07000000  0.29980000  0.39440000  0.00000000
C        C    0.20020000  0.93000000  0.10560000  0.00000000
C        C    0.93000000  0.29980000  0.39440000  0.00000000
C        C    0.10560000  0.79980000  0.07000000  0.00000000
C        C    0.93000000  0.60560000  0.70020000  0.00000000
C        C    0.39440000  0.20020000  0.43000000  0.00000000
C        C    0.43000000  0.89440000  0.70020000  0.00000000
C        C    0.10560000  0.29980000  0.43000000  0.00000000
C        C    0.60560000  0.07000000  0.29980000  0.00000000
C        C    0.10560000  0.93000000  0.79980000  0.00000000
C        C    0.43000000  0.60560000  0.20020000  0.00000000
C        C    0.20020000  0.10560000  0.93000000  0.00000000
C        C    0.79980000  0.93000000  0.10560000  0.00000000
C        C    0.20020000  0.39440000  0.57000000  0.00000000
C        C    0.93000000  0.70020000  0.60560000  0.00000000
C        C    0.70020000  0.07000000  0.39440000  0.00000000
C        C    0.43000000  0.70020000  0.89440000  0.00000000
C        C    0.70020000  0.89440000  0.57000000  0.00000000
C        C    0.57000000  0.39440000  0.79980000  0.00000000
C        C    0.10560000  0.07000000  0.20020000  0.00000000
C        C    0.43000000  0.29980000  0.10560000  0.00000000
C        C    0.89440000  0.79980000  0.93000000  0.00000000
C        C    0.43000000  0.29980000  0.89440000  0.00000000
C        C    0.07000000  0.70020000  0.60560000  0.00000000
C        C    0.93000000  0.10560000  0.79980000  0.00000000
C        C    0.60560000  0.29980000  0.07000000  0.00000000
C        C    0.20020000  0.89440000  0.07000000  0.00000000
C        C    0.39440000  0.70020000  0.07000000  0.00000000
C        C    0.89440000  0.70020000  0.43000000  0.00000000
C        C    0.39440000  0.07000000  0.70020000  0.00000000
C        C    0.89440000  0.07000000  0.79980000  0.00000000
C        C    0.57000000  0.60560000  0.20020000  0.00000000
C        C    0.70020000  0.39440000  0.93000000  0.00000000
C        C    0.20020000  0.93000000  0.89440000  0.00000000
C        C    0.07000000  0.20020000  0.10560000  0.00000000
C        C    0.70020000  0.93000000  0.39440000  0.00000000
C        C    0.10560000  0.29980000  0.57000000  0.00000000
C        C    0.60560000  0.70020000  0.93000000  0.00000000
C        C    0.07000000  0.60560000  0.29980000  0.00000000
C        C    0.79980000  0.60560000  0.57000000  0.00000000
C        C    0.07000000  0.79980000  0.89440000  0.00000000
C        C    0.20020000  0.89440000  0.93000000  0.00000000
C        C    0.89440000  0.29980000  0.43000000  0.00000000
C        C    0.89440000  0.57000000  0.70020000  0.00000000
C        C    0.70020000  0.60560000  0.93000000  0.00000000
C        C    0.43000000  0.39440000  0.79980000  0.00000000
C        C    0.29980000  0.39440000  0.07000000  0.00000000
C        C    0.07000000  0.79980000  0.10560000  0.00000000
C        C    0.39440000  0.57000000  0.20020000  0.00000000
C        C    0.60560000  0.43000000  0.79980000  0.00000000
C        C    0.07000000  0.10560000  0.20020000  0.00000000
C        C    0.20020000  0.43000000  0.60560000  0.00000000
C        C    0.20020000  0.57000000  0.39440000  0.00000000
C        C    0.89440000  0.70020000  0.57000000  0.00000000
C        C    0.70020000  0.10560000  0.43000000  0.00000000
C        C    0.29980000  0.57000000  0.89440000  0.00000000
C        C    0.57000000  0.29980000  0.10560000  0.00000000
C        C    0.39440000  0.29980000  0.93000000  0.00000000
C        C    0.93000000  0.10560000  0.20020000  0.00000000
C        C    0.60560000  0.93000000  0.70020000  0.00000000
C        C    0.29980000  0.89440000  0.57000000  0.00000000
C        C    0.89440000  0.93000000  0.20020000  0.00000000
C        C    0.57000000  0.89440000  0.29980000  0.00000000
C        C    0.79980000  0.10560000  0.93000000  0.00000000
C        C    0.89440000  0.20020000  0.93000000  0.00000000
C        C    0.39440000  0.70020000  0.93000000  0.00000000
C        C    0.70020000  0.43000000  0.89440000  0.00000000
C        C    0.70020000  0.60560000  0.07000000  0.00000000
C        C    0.43000000  0.20020000  0.39440000  0.00000000
C        C    0.10560000  0.43000000  0.29980000  0.00000000
C        C    0.07000000  0.89440000  0.79980000  0.00000000
C        C    0.07000000  0.10560000  0.79980000  0.00000000
C        C    0.60560000  0.79980000  0.57000000  0.00000000
C        C    0.20020000  0.39440000  0.43000000  0.00000000
C        C    0.10560000  0.70020000  0.43000000  0.00000000
C        C    0.29980000  0.39440000  0.93000000  0.00000000
C        C    0.93000000  0.79980000  0.89440000  0.00000000
C        C    0.79980000  0.89440000  0.07000000  0.00000000
C        C    0.57000000  0.20020000  0.39440000  0.00000000
C        C    0.29980000  0.93000000  0.60560000  0.00000000
C        C    0.20020000  0.57000000  0.60560000  0.00000000
C        C    0.93000000  0.39440000  0.70020000  0.00000000
C        C    0.70020000  0.07000000  0.60560000  0.00000000
C        C    0.29980000  0.07000000  0.39440000  0.00000000
C        C    0.57000000  0.10560000  0.70020000  0.00000000
C        C    0.20020000  0.10560000  0.07000000  0.00000000
C        C    0.43000000  0.79980000  0.60560000  0.00000000
C        C    0.29980000  0.93000000  0.39440000  0.00000000
C        C    0.29980000  0.60560000  0.07000000  0.00000000
C        C    0.39440000  0.29980000  0.07000000  0.00000000
C        C    0.60560000  0.93000000  0.29980000  0.00000000
C        C    0.60560000  0.57000000  0.79980000  0.00000000
C        C    0.39440000  0.57000000  0.79980000  0.00000000
C        C    0.29980000  0.43000000  0.89440000  0.00000000
C        C    0.39440000  0.93000000  0.29980000  0.00000000
C        C    0.07000000  0.89440000  0.20020000  0.00000000
C        C    0.70020000  0.89440000  0.43000000  0.00000000
C        C    0.29980000  0.57000000  0.10560000  0.00000000
C        C    0.07000000  0.20020000  0.89440000  0.00000000
C        C    0.79980000  0.10560000  0.07000000  0.00000000
C        C    0.57000000  0.10560000  0.29980000  0.00000000
C        C    0.39440000  0.43000000  0.20020000  0.00000000
C        C    0.29980000  0.60560000  0.93000000  0.00000000
C        C    0.70020000  0.57000000  0.10560000  0.00000000
C        C    0.89440000  0.07000000  0.20020000  0.00000000
C        C    0.57000000  0.29980000  0.89440000  0.00000000
C        C    0.60560000  0.29980000  0.93000000  0.00000000
C        C    0.93000000  0.79980000  0.10560000  0.00000000
C        C    0.57000000  0.60560000  0.79980000  0.00000000
C        C    0.79980000  0.39440000  0.57000000  0.00000000
C        C    0.70020000  0.43000000  0.10560000  0.00000000
C        C    0.79980000  0.07000000  0.89440000  0.00000000
C        C    0.79980000  0.89440000  0.93000000  0.00000000
C        C    0.79980000  0.93000000  0.89440000  0.00000000
C        C    0.60560000  0.79980000  0.43000000  0.00000000
C        C    0.57000000  0.89440000  0.70020000  0.00000000
C        C    0.93000000  0.29980000  0.60560000  0.00000000
C        C    0.20020000  0.07000000  0.10560000  0.00000000
C        C    0.07000000  0.70020000  0.39440000  0.00000000
C        C    0.07000000  0.60560000  0.70020000  0.00000000
C        C    0.29980000  0.43000000  0.10560000  0.00000000
C        C    0.10560000  0.20020000  0.07000000  0.00000000
C        C    0.57000000  0.39440000  0.20020000  0.00000000
C        C    0.79980000  0.57000000  0.39440000  0.00000000
C        C    0.57000000  0.70020000  0.10560000  0.00000000
C        C    0.89440000  0.79980000  0.07000000  0.00000000
C        C    0.77210000  0.57890000  0.61790000  0.00000000
C        C    0.42110000  0.11790000  0.27210000  0.00000000
C        C    0.72790000  0.57890000  0.88210000  0.00000000
C        C    0.11790000  0.22790000  0.92110000  0.00000000
C        C    0.92110000  0.38210000  0.27210000  0.00000000
C        C    0.88210000  0.92110000  0.77210000  0.00000000
C        C    0.88210000  0.22790000  0.07890000  0.00000000
C        C    0.11790000  0.77210000  0.92110000  0.00000000
C        C    0.92110000  0.88210000  0.77210000  0.00000000
C        C    0.92110000  0.61790000  0.27210000  0.00000000
C        C    0.72790000  0.38210000  0.07890000  0.00000000
C        C    0.11790000  0.57890000  0.72790000  0.00000000
C        C    0.11790000  0.07890000  0.77210000  0.00000000
C        C    0.92110000  0.72790000  0.38210000  0.00000000
C        C    0.27210000  0.88210000  0.42110000  0.00000000
C        C    0.72790000  0.92110000  0.61790000  0.00000000
C        C    0.42110000  0.11790000  0.72790000  0.00000000
C        C    0.42110000  0.77210000  0.38210000  0.00000000
C        C    0.11790000  0.42110000  0.72790000  0.00000000
C        C    0.77210000  0.42110000  0.61790000  0.00000000
C        C    0.42110000  0.88210000  0.27210000  0.00000000
C        C    0.27210000  0.11790000  0.42110000  0.00000000
C        C    0.77210000  0.61790000  0.42110000  0.00000000
C        C    0.42110000  0.61790000  0.77210000  0.00000000
C        C    0.38210000  0.92110000  0.72790000  0.00000000
C        C    0.77210000  0.07890000  0.11790000  0.00000000
C        C    0.22790000  0.61790000  0.42110000  0.00000000
C        C    0.22790000  0.61790000  0.57890000  0.00000000
C        C    0.61790000  0.22790000  0.57890000  0.00000000
C        C    0.57890000  0.72790000  0.88210000  0.00000000
C        C    0.57890000  0.77210000  0.61790000  0.00000000
C        C    0.27210000  0.11790000  0.57890000  0.00000000
C        C    0.22790000  0.07890000  0.88210000  0.00000000
C        C    0.11790000  0.57890000  0.27210000  0.00000000
C        C    0.77210000  0.42110000  0.38210000  0.00000000
C        C    0.72790000  0.11790000  0.57890000  0.00000000
C        C    0.92110000  0.88210000  0.22790000  0.00000000
C        C    0.38210000  0.42110000  0.77210000  0.00000000
C        C    0.57890000  0.77210000  0.38210000  0.00000000
C        C    0.61790000  0.42110000  0.22790000  0.00000000
C        C    0.92110000  0.22790000  0.88210000  0.00000000
C        C    0.11790000  0.92110000  0.22790000  0.00000000
C        C    0.38210000  0.07890000  0.27210000  0.00000000
C        C    0.07890000  0.27210000  0.61790000  0.00000000
C        C    0.61790000  0.07890000  0.72790000  0.00000000
C        C    0.88210000  0.27210000  0.57890000  0.00000000
C        C    0.88210000  0.42110000  0.27210000  0.00000000
C        C    0.88210000  0.57890000  0.27210000  0.00000000
C        C    0.38210000  0.77210000  0.57890000  0.00000000
C        C    0.61790000  0.22790000  0.42110000  0.00000000
C        C    0.77210000  0.38210000  0.42110000  0.00000000
C        C    0.92110000  0.22790000  0.11790000  0.00000000
C        C    0.07890000  0.38210000  0.27210000  0.00000000
C        C    0.27210000  0.07890000  0.61790000  0.00000000
C        C    0.61790000  0.72790000  0.07890000  0.00000000
C        C    0.42110000  0.38210000  0.22790000  0.00000000
C        C    0.42110000  0.72790000  0.11790000  0.00000000
C        C    0.88210000  0.42110000  0.72790000  0.00000000
C        C    0.61790000  0.57890000  0.22790000  0.00000000
C        C    0.07890000  0.38210000  0.72790000  0.00000000
C        C    0.11790000  0.72790000  0.57890000  0.00000000
C        C    0.57890000  0.22790000  0.61790000  0.00000000
C        C    0.38210000  0.22790000  0.57890000  0.00000000
C        C    0.22790000  0.42110000  0.38210000  0.00000000
C        C    0.38210000  0.77210000  0.42110000  0.00000000
C        C    0.42110000  0.22790000  0.61790000  0.00000000
C        C    0.07890000  0.27210000  0.38210000  0.00000000
C        C    0.22790000  0.92110000  0.11790000  0.00000000
C        C    0.92110000  0.27210000  0.38210000  0.00000000
C        C    0.11790000  0.77210000  0.07890000  0.00000000
C        C    0.92110000  0.61790000  0.72790000  0.00000000
C        C    0.38210000  0.22790000  0.42110000  0.00000000
C        C    0.42110000  0.88210000  0.72790000  0.00000000
C        C    0.11790000  0.27210000  0.42110000  0.00000000
C        C    0.61790000  0.07890000  0.27210000  0.00000000
C        C    0.11790000  0.92110000  0.77210000  0.00000000
C        C    0.42110000  0.61790000  0.22790000  0.00000000
C        C    0.22790000  0.11790000  0.92110000  0.00000000
C        C    0.77210000  0.92110000  0.11790000  0.00000000
C        C    0.22790000  0.38210000  0.57890000  0.00000000
C        C    0.92110000  0.72790000  0.61790000  0.00000000
C        C    0.72790000  0.07890000  0.38210000  0.00000000
C        C    0.42110000  0.72790000  0.88210000  0.00000000
C        C    0.72790000  0.88210000  0.57890000  0.00000000
C        C    0.57890000  0.38210000  0.77210000  0.00000000
C        C    0.11790000  0.07890000  0.22790000  0.00000000
C        C    0.42110000  0.27210000  0.11790000  0.00000000
C        C    0.88210000  0.77210000  0.92110000  0.00000000
C        C    0.42110000  0.27210000  0.88210000  0.00000000
C        C    0.07890000  0.72790000  0.61790000  0.00000000
C        C    0.92110000  0.11790000  0.77210000  0.00000000
C        C    0.61790000  0.27210000  0.07890000  0.00000000
C        C    0.22790000  0.88210000  0.07890000  0.00000000
C        C    0.38210000  0.72790000  0.07890000  0.00000000
C        C    0.88210000  0.72790000  0.42110000  0.00000000
C        C    0.38210000  0.07890000  0.72790000  0.00000000
C        C    0.88210000  0.07890000  0.77210000  0.00000000
C        C    0.57890000  0.61790000  0.22790000  0.00000000
C        C    0.72790000  0.38210000  0.92110000  0.00000000
C        C    0.22790000  0.92110000  0.88210000  0.00000000
C        C    0.07890000  0.22790000  0.11790000  0.00000000
C        C    0.72790000  0.92110000  0.38210000  0.00000000
C        C    0.11790000  0.27210000  0.57890000  0.00000000
C        C    0.61790000  0.72790000  0.92110000  0.00000000
C        C    0.07890000  0.61790000  0.27210000  0.00000000
C        C    0.77210000  0.61790000  0.57890000  0.00000000
C        C    0.07890000  0.77210000  0.88210000  0.00000000
C        C    0.22790000  0.88210000  0.92110000  0.00000000
C        C    0.88210000  0.27210000  0.42110000  0.00000000
C        C    0.88210000  0.57890000  0.72790000  0.00000000
C        C    0.72790000  0.61790000  0.92110000  0.00000000
C        C    0.42110000  0.38210000  0.77210000  0.00000000
C        C    0.27210000  0.38210000  0.07890000  0.00000000
C        C    0.07890000  0.77210000  0.11790000  0.00000000
C        C    0.38210000  0.57890000  0.22790000  0.00000000
C        C    0.61790000  0.42110000  0.77210000  0.00000000
C        C    0.07890000  0.11790000  0.22790000  0.00000000
C        C    0.22790000  0.42110000  0.61790000  0.00000000
C        C    0.22790000  0.57890000  0.38210000  0.00000000
C        C    0.88210000  0.72790000  0.57890000  0.00000000
C        C    0.72790000  0.11790000  0.42110000  0.00000000
C        C    0.27210000  0.57890000  0.88210000  0.00000000
C        C    0.57890000  0.27210000  0.11790000  0.00000000
C        C    0.38210000  0.27210000  0.92110000  0.00000000
C        C    0.92110000  0.11790000  0.22790000  0.00000000
C        C    0.61790000  0.92110000  0.72790000  0.00000000
C        C    0.27210000  0.88210000  0.57890000  0.00000000
C        C    0.88210000  0.92110000  0.22790000  0.00000000
C        C    0.57890000  0.88210000  0.27210000  0.00000000
C        C    0.77210000  0.11790000  0.92110000  0.00000000
C        C    0.88210000  0.22790000  0.92110000  0.00000000
C        C    0.38210000  0.72790000  0.92110000  0.00000000
C        C    0.72790000  0.42110000  0.88210000  0.00000000
C        C    0.72790000  0.61790000  0.07890000  0.00000000
C        C    0.42110000  0.22790000  0.38210000  0.00000000
C        C    0.11790000  0.42110000  0.27210000  0.00000000
C        C    0.07890000  0.88210000  0.77210000  0.00000000
C        C    0.07890000  0.11790000  0.77210000  0.00000000
C        C    0.61790000  0.77210000  0.57890000  0.00000000
C        C    0.22790000  0.38210000  0.42110000  0.00000000
C        C    0.11790000  0.72790000  0.42110000  0.00000000
C        C    0.27210000  0.38210000  0.92110000  0.00000000
C        C    0.92110000  0.77210000  0.88210000  0.00000000
C        C    0.77210000  0.88210000  0.07890000  0.00000000
C        C    0.57890000  0.22790000  0.38210000  0.00000000
C        C    0.27210000  0.92110000  0.61790000  0.00000000
C        C    0.22790000  0.57890000  0.61790000  0.00000000
C        C    0.92110000  0.38210000  0.72790000  0.00000000
C        C    0.72790000  0.07890000  0.61790000  0.00000000
C        C    0.27210000  0.07890000  0.38210000  0.00000000
C        C    0.57890000  0.11790000  0.72790000  0.00000000
C        C    0.22790000  0.11790000  0.07890000  0.00000000
C        C    0.42110000  0.77210000  0.61790000  0.00000000
C        C    0.27210000  0.92110000  0.38210000  0.00000000
C        C    0.27210000  0.61790000  0.07890000  0.00000000
C        C    0.38210000  0.27210000  0.07890000  0.00000000
C        C    0.61790000  0.92110000  0.27210000  0.00000000
C        C    0.61790000  0.57890000  0.77210000  0.00000000
C        C    0.38210000  0.57890000  0.77210000  0.00000000
C        C    0.27210000  0.42110000  0.88210000  0.00000000
C        C    0.38210000  0.92110000  0.27210000  0.00000000
C        C    0.07890000  0.88210000  0.22790000  0.00000000
C        C    0.72790000  0.88210000  0.42110000  0.00000000
C        C    0.27210000  0.57890000  0.11790000  0.00000000
C        C    0.07890000  0.22790000  0.88210000  0.00000000
C        C    0.77210000  0.11790000  0.07890000  0.00000000
C        C    0.57890000  0.11790000  0.27210000  0.00000000
C        C    0.38210000  0.42110000  0.22790000  0.00000000
C        C    0.27210000  0.61790000  0.92110000  0.00000000
C        C    0.72790000  0.57890000  0.11790000  0.00000000
C        C    0.88210000  0.07890000  0.22790000  0.00000000
C        C    0.57890000  0.27210000  0.88210000  0.00000000
C        C    0.61790000  0.27210000  0.92110000  0.00000000
C        C    0.92110000  0.77210000  0.11790000  0.00000000
C        C    0.57890000  0.61790000  0.77210000  0.00000000
C        C    0.77210000  0.38210000  0.57890000  0.00000000
C        C    0.72790000  0.42110000  0.11790000  0.00000000
C        C    0.77210000  0.07890000  0.88210000  0.00000000
C        C    0.77210000  0.88210000  0.92110000  0.00000000
C        C    0.77210000  0.92110000  0.88210000  0.00000000
C        C    0.61790000  0.77210000  0.42110000  0.00000000
C        C    0.57890000  0.88210000  0.72790000  0.00000000
C        C    0.92110000  0.27210000  0.61790000  0.00000000
C        C    0.22790000  0.07890000  0.11790000  0.00000000
C        C    0.07890000  0.72790000  0.38210000  0.00000000
C        C    0.07890000  0.61790000  0.72790000  0.00000000
C        C    0.27210000  0.42110000  0.11790000  0.00000000
C        C    0.11790000  0.22790000  0.07890000  0.00000000
C        C    0.57890000  0.38210000  0.22790000  0.00000000
C        C    0.77210000  0.57890000  0.38210000  0.00000000
C        C    0.57890000  0.72790000  0.11790000  0.00000000
C        C    0.88210000  0.77210000  0.07890000  0.00000000
H        H    0.76340000  0.56920000  0.63590000  0.00000000
H        H    0.43080000  0.13590000  0.26340000  0.00000000
H        H    0.73660000  0.56920000  0.86410000  0.00000000
H        H    0.13590000  0.23660000  0.93080000  0.00000000
H        H    0.93080000  0.36410000  0.26340000  0.00000000
H        H    0.86410000  0.93080000  0.76340000  0.00000000
H        H    0.86410000  0.23660000  0.06920000  0.00000000
H        H    0.13590000  0.76340000  0.93080000  0.00000000
H        H    0.93080000  0.86410000  0.76340000  0.00000000
H        H    0.93080000  0.63590000  0.26340000  0.00000000
H        H    0.73660000  0.36410000  0.06920000  0.00000000
H        H    0.13590000  0.56920000  0.73660000  0.00000000
H        H    0.13590000  0.06920000  0.76340000  0.00000000
H        H    0.93080000  0.73660000  0.36410000  0.00000000
H        H    0.26340000  0.86410000  0.43080000  0.00000000
H        H    0.73660000  0.93080000  0.63590000  0.00000000
H        H    0.43080000  0.13590000  0.73660000  0.00000000
H        H    0.43080000  0.76340000  0.36410000  0.00000000
H        H    0.13590000  0.43080000  0.73660000  0.00000000
H        H    0.76340000  0.43080000  0.63590000  0.00000000
H        H    0.43080000  0.86410000  0.26340000  0.00000000
H        H    0.26340000  0.13590000  0.43080000  0.00000000
H        H    0.76340000  0.63590000  0.43080000  0.00000000
H        H    0.43080000  0.63590000  0.76340000  0.00000000
H        H    0.36410000  0.93080000  0.73660000  0.00000000
H        H    0.76340000  0.06920000  0.13590000  0.00000000
H        H    0.23660000  0.63590000  0.43080000  0.00000000
H        H    0.23660000  0.63590000  0.56920000  0.00000000
H        H    0.63590000  0.23660000  0.56920000  0.00000000
H        H    0.56920000  0.73660000  0.86410000  0.00000000
H        H    0.56920000  0.76340000  0.63590000  0.00000000
H        H    0.26340000  0.13590000  0.56920000  0.00000000
H        H    0.23660000  0.06920000  0.86410000  0.00000000
H        H    0.13590000  0.56920000  0.26340000  0.00000000
H        H    0.76340000  0.43080000  0.36410000  0.00000000
H        H    0.73660000  0.13590000  0.56920000  0.00000000
H        H    0.93080000  0.86410000  0.23660000  0.00000000
H        H    0.36410000  0.43080000  0.76340000  0.00000000
H        H    0.56920000  0.76340000  0.36410000  0.00000000
H        H    0.63590000  0.43080000  0.23660000  0.00000000
H        H    0.93080000  0.23660000  0.86410000  0.00000000
H        H    0.13590000  0.93080000  0.23660000  0.00000000
H        H    0.36410000  0.06920000  0.26340000  0.00000000
H        H    0.06920000  0.26340000  0.63590000  0.00000000
H        H    0.63590000  0.06920000  0.73660000  0.00000000
H        H    0.86410000  0.26340000  0.56920000  0.00000000
H        H    0.86410000  0.43080000  0.26340000  0.00000000
H        H    0.86410000  0.56920000  0.26340000  0.00000000
H        H    0.36410000  0.76340000  0.56920000  0.00000000
H        H    0.63590000  0.23660000  0.43080000  0.00000000
H        H    0.76340000  0.36410000  0.43080000  0.00000000
H        H    0.93080000  0.23660000  0.13590000  0.00000000
H        H    0.06920000  0.36410000  0.26340000  0.00000000
H        H    0.26340000  0.06920000  0.63590000  0.00000000
H        H    0.63590000  0.73660000  0.06920000  0.00000000
H        H    0.43080000  0.36410000  0.23660000  0.00000000
H        H    0.43080000  0.73660000  0.13590000  0.00000000
H        H    0.86410000  0.43080000  0.73660000  0.00000000
H        H    0.63590000  0.56920000  0.23660000  0.00000000
H        H    0.06920000  0.36410000  0.73660000  0.00000000
H        H    0.13590000  0.73660000  0.56920000  0.00000000
H        H    0.56920000  0.23660000  0.63590000  0.00000000
H        H    0.36410000  0.23660000  0.56920000  0.00000000
H        H    0.23660000  0.43080000  0.36410000  0.00000000
H        H    0.36410000  0.76340000  0.43080000  0.00000000
H        H    0.43080000  0.23660000  0.63590000  0.00000000
H        H    0.06920000  0.26340000  0.36410000  0.00000000
H        H    0.23660000  0.93080000  0.13590000  0.00000000
H        H    0.93080000  0.26340000  0.36410000  0.00000000
H        H    0.13590000  0.76340000  0.06920000  0.00000000
H        H    0.93080000  0.63590000  0.73660000  0.00000000
H        H    0.36410000  0.23660000  0.43080000  0.00000000
H        H    0.43080000  0.86410000  0.73660000  0.00000000
H        H    0.13590000  0.26340000  0.43080000  0.00000000
H        H    0.63590000  0.06920000  0.26340000  0.00000000
H        H    0.13590000  0.93080000  0.76340000  0.00000000
H        H    0.43080000  0.63590000  0.23660000  0.00000000
H        H    0.23660000  0.13590000  0.93080000  0.00000000
H        H    0.76340000  0.93080000  0.13590000  0.00000000
H        H    0.23660000  0.36410000  0.56920000  0.00000000
H        H    0.93080000  0.73660000  0.63590000  0.00000000
H        H    0.73660000  0.06920000  0.36410000  0.00000000
H        H    0.43080000  0.73660000  0.86410000  0.00000000
H        H    0.73660000  0.86410000  0.56920000  0.00000000
H        H    0.56920000  0.36410000  0.76340000  0.00000000
H        H    0.13590000  0.06920000  0.23660000  0.00000000
H        H    0.43080000  0.26340000  0.13590000  0.00000000
H        H    0.86410000  0.76340000  0.93080000  0.00000000
H        H    0.43080000  0.26340000  0.86410000  0.00000000
H        H    0.06920000  0.73660000  0.63590000  0.00000000
H        H    0.93080000  0.13590000  0.76340000  0.00000000
H        H    0.63590000  0.26340000  0.06920000  0.00000000
H        H    0.23660000  0.86410000  0.06920000  0.00000000
H        H    0.36410000  0.73660000  0.06920000  0.00000000
H        H    0.86410000  0.73660000  0.43080000  0.00000000
H        H    0.36410000  0.06920000  0.73660000  0.00000000
H        H    0.86410000  0.06920000  0.76340000  0.00000000
H        H    0.56920000  0.63590000  0.23660000  0.00000000
H        H    0.73660000  0.36410000  0.93080000  0.00000000
H        H    0.23660000  0.93080000  0.86410000  0.00000000
H        H    0.06920000  0.23660000  0.13590000  0.00000000
H        H    0.73660000  0.93080000  0.36410000  0.00000000
H        H    0.13590000  0.26340000  0.56920000  0.00000000
H        H    0.63590000  0.73660000  0.93080000  0.00000000
H        H    0.06920000  0.63590000  0.26340000  0.00000000
H        H    0.76340000  0.63590000  0.56920000  0.00000000
H        H    0.06920000  0.76340000  0.86410000  0.00000000
H        H    0.23660000  0.86410000  0.93080000  0.00000000
H        H    0.86410000  0.26340000  0.43080000  0.00000000
H        H    0.86410000  0.56920000  0.73660000  0.00000000
H        H    0.73660000  0.63590000  0.93080000  0.00000000
H        H    0.43080000  0.36410000  0.76340000  0.00000000
H        H    0.26340000  0.36410000  0.06920000  0.00000000
H        H    0.06920000  0.76340000  0.13590000  0.00000000
H        H    0.36410000  0.56920000  0.23660000  0.00000000
H        H    0.63590000  0.43080000  0.76340000  0.00000000
H        H    0.06920000  0.13590000  0.23660000  0.00000000
H        H    0.23660000  0.43080000  0.63590000  0.00000000
H        H    0.23660000  0.56920000  0.36410000  0.00000000
H        H    0.86410000  0.73660000  0.56920000  0.00000000
H        H    0.73660000  0.13590000  0.43080000  0.00000000
H        H    0.26340000  0.56920000  0.86410000  0.00000000
H        H    0.56920000  0.26340000  0.13590000  0.00000000
H        H    0.36410000  0.26340000  0.93080000  0.00000000
H        H    0.93080000  0.13590000  0.23660000  0.00000000
H        H    0.63590000  0.93080000  0.73660000  0.00000000
H        H    0.26340000  0.86410000  0.56920000  0.00000000
H        H    0.86410000  0.93080000  0.23660000  0.00000000
H        H    0.56920000  0.86410000  0.26340000  0.00000000
H        H    0.76340000  0.13590000  0.93080000  0.00000000
H        H    0.86410000  0.23660000  0.93080000  0.00000000
H        H    0.36410000  0.73660000  0.93080000  0.00000000
H        H    0.73660000  0.43080000  0.86410000  0.00000000
H        H    0.73660000  0.63590000  0.06920000  0.00000000
H        H    0.43080000  0.23660000  0.36410000  0.00000000
H        H    0.13590000  0.43080000  0.26340000  0.00000000
H        H    0.06920000  0.86410000  0.76340000  0.00000000
H        H    0.06920000  0.13590000  0.76340000  0.00000000
H        H    0.63590000  0.76340000  0.56920000  0.00000000
H        H    0.23660000  0.36410000  0.43080000  0.00000000
H        H    0.13590000  0.73660000  0.43080000  0.00000000
H        H    0.26340000  0.36410000  0.93080000  0.00000000
H        H    0.93080000  0.76340000  0.86410000  0.00000000
H        H    0.76340000  0.86410000  0.06920000  0.00000000
H        H    0.56920000  0.23660000  0.36410000  0.00000000
H        H    0.26340000  0.93080000  0.63590000  0.00000000
H        H    0.23660000  0.56920000  0.63590000  0.00000000
H        H    0.93080000  0.36410000  0.73660000  0.00000000
H        H    0.73660000  0.06920000  0.63590000  0.00000000
H        H    0.26340000  0.06920000  0.36410000  0.00000000
H        H    0.56920000  0.13590000  0.73660000  0.00000000
H        H    0.23660000  0.13590000  0.06920000  0.00000000
H        H    0.43080000  0.76340000  0.63590000  0.00000000
H        H    0.26340000  0.93080000  0.36410000  0.00000000
H        H    0.26340000  0.63590000  0.06920000  0.00000000
H        H    0.36410000  0.26340000  0.06920000  0.00000000
H        H    0.63590000  0.93080000  0.26340000  0.00000000
H        H    0.63590000  0.56920000  0.76340000  0.00000000
H        H    0.36410000  0.56920000  0.76340000  0.00000000
H        H    0.26340000  0.43080000  0.86410000  0.00000000
H        H    0.36410000  0.93080000  0.26340000  0.00000000
H        H    0.06920000  0.86410000  0.23660000  0.00000000
H        H    0.73660000  0.86410000  0.43080000  0.00000000
H        H    0.26340000  0.56920000  0.13590000  0.00000000
H        H    0.06920000  0.23660000  0.86410000  0.00000000
H        H    0.76340000  0.13590000  0.06920000  0.00000000
H        H    0.56920000  0.13590000  0.26340000  0.00000000
H        H    0.36410000  0.43080000  0.23660000  0.00000000
H        H    0.26340000  0.63590000  0.93080000  0.00000000
H        H    0.73660000  0.56920000  0.13590000  0.00000000
H        H    0.86410000  0.06920000  0.23660000  0.00000000
H        H    0.56920000  0.26340000  0.86410000  0.00000000
H        H    0.63590000  0.26340000  0.93080000  0.00000000
H        H    0.93080000  0.76340000  0.13590000  0.00000000
H        H    0.56920000  0.63590000  0.76340000  0.00000000
H        H    0.76340000  0.36410000  0.56920000  0.00000000
H        H    0.73660000  0.43080000  0.13590000  0.00000000
H        H    0.76340000  0.06920000  0.86410000  0.00000000
H        H    0.76340000  0.86410000  0.93080000  0.00000000
H        H    0.76340000  0.93080000  0.86410000  0.00000000
H        H    0.63590000  0.76340000  0.43080000  0.00000000
H        H    0.56920000  0.86410000  0.73660000  0.00000000
H        H    0.93080000  0.26340000  0.63590000  0.00000000
H        H    0.23660000  0.06920000  0.13590000  0.00000000
H        H    0.06920000  0.73660000  0.36410000  0.00000000
H        H    0.06920000  0.63590000  0.73660000  0.00000000
H        H    0.26340000  0.43080000  0.13590000  0.00000000
H        H    0.13590000  0.23660000  0.06920000  0.00000000
H        H    0.56920000  0.36410000  0.23660000  0.00000000
H        H    0.76340000  0.56920000  0.36410000  0.00000000
H        H    0.56920000  0.73660000  0.13590000  0.00000000
H        H    0.86410000  0.76340000  0.06920000  0.00000000
C        C    0.89740000  0.89740000  0.75760000  0.00000000
C        C    0.39740000  0.10260000  0.25760000  0.00000000
C        C    0.89740000  0.39740000  0.25760000  0.00000000
C        C    0.89740000  0.60260000  0.25760000  0.00000000
C        C    0.75760000  0.39740000  0.39740000  0.00000000
C        C    0.89740000  0.24240000  0.10260000  0.00000000
C        C    0.25760000  0.10260000  0.60260000  0.00000000
C        C    0.10260000  0.39740000  0.74240000  0.00000000
C        C    0.60260000  0.24240000  0.60260000  0.00000000
C        C    0.39740000  0.75760000  0.39740000  0.00000000
C        C    0.39740000  0.24240000  0.60260000  0.00000000
C        C    0.39740000  0.89740000  0.74240000  0.00000000
C        C    0.10260000  0.25760000  0.39740000  0.00000000
C        C    0.24240000  0.10260000  0.89740000  0.00000000
C        C    0.74240000  0.89740000  0.60260000  0.00000000
C        C    0.10260000  0.74240000  0.60260000  0.00000000
C        C    0.24240000  0.89740000  0.10260000  0.00000000
C        C    0.39740000  0.74240000  0.10260000  0.00000000
C        C    0.89740000  0.74240000  0.39740000  0.00000000
C        C    0.39740000  0.10260000  0.74240000  0.00000000
C        C    0.89740000  0.10260000  0.75760000  0.00000000
C        C    0.60260000  0.60260000  0.24240000  0.00000000
C        C    0.10260000  0.25760000  0.60260000  0.00000000
C        C    0.60260000  0.74240000  0.89740000  0.00000000
C        C    0.10260000  0.60260000  0.25760000  0.00000000
C        C    0.75760000  0.60260000  0.60260000  0.00000000
C        C    0.10260000  0.75760000  0.89740000  0.00000000
C        C    0.24240000  0.89740000  0.89740000  0.00000000
C        C    0.89740000  0.25760000  0.39740000  0.00000000
C        C    0.89740000  0.60260000  0.74240000  0.00000000
C        C    0.74240000  0.60260000  0.89740000  0.00000000
C        C    0.39740000  0.39740000  0.75760000  0.00000000
C        C    0.10260000  0.75760000  0.10260000  0.00000000
C        C    0.39740000  0.60260000  0.24240000  0.00000000
C        C    0.60260000  0.39740000  0.75760000  0.00000000
C        C    0.10260000  0.10260000  0.24240000  0.00000000
C        C    0.24240000  0.39740000  0.60260000  0.00000000
C        C    0.24240000  0.60260000  0.39740000  0.00000000
C        C    0.89740000  0.74240000  0.60260000  0.00000000
C        C    0.74240000  0.10260000  0.39740000  0.00000000
C        C    0.60260000  0.25760000  0.10260000  0.00000000
C        C    0.39740000  0.25760000  0.89740000  0.00000000
C        C    0.89740000  0.89740000  0.24240000  0.00000000
C        C    0.89740000  0.24240000  0.89740000  0.00000000
C        C    0.39740000  0.74240000  0.89740000  0.00000000
C        C    0.74240000  0.39740000  0.89740000  0.00000000
C        C    0.39740000  0.24240000  0.39740000  0.00000000
C        C    0.10260000  0.39740000  0.25760000  0.00000000
C        C    0.10260000  0.89740000  0.75760000  0.00000000
C        C    0.10260000  0.10260000  0.75760000  0.00000000
C        C    0.60260000  0.75760000  0.60260000  0.00000000
C        C    0.24240000  0.39740000  0.39740000  0.00000000
C        C    0.89740000  0.75760000  0.89740000  0.00000000
C        C    0.75760000  0.89740000  0.10260000  0.00000000
C        C    0.60260000  0.24240000  0.39740000  0.00000000
C        C    0.25760000  0.89740000  0.60260000  0.00000000
C        C    0.24240000  0.60260000  0.60260000  0.00000000
C        C    0.89740000  0.39740000  0.74240000  0.00000000
C        C    0.74240000  0.10260000  0.60260000  0.00000000
C        C    0.25760000  0.10260000  0.39740000  0.00000000
C        C    0.60260000  0.10260000  0.74240000  0.00000000
C        C    0.39740000  0.75760000  0.60260000  0.00000000
C        C    0.25760000  0.89740000  0.39740000  0.00000000
C        C    0.39740000  0.25760000  0.10260000  0.00000000
C        C    0.60260000  0.89740000  0.25760000  0.00000000
C        C    0.39740000  0.60260000  0.75760000  0.00000000
C        C    0.25760000  0.39740000  0.89740000  0.00000000
C        C    0.39740000  0.89740000  0.25760000  0.00000000
C        C    0.10260000  0.89740000  0.24240000  0.00000000
C        C    0.74240000  0.89740000  0.39740000  0.00000000
C        C    0.25760000  0.60260000  0.10260000  0.00000000
C        C    0.10260000  0.24240000  0.89740000  0.00000000
C        C    0.75760000  0.10260000  0.10260000  0.00000000
C        C    0.60260000  0.10260000  0.25760000  0.00000000
C        C    0.39740000  0.39740000  0.24240000  0.00000000
C        C    0.25760000  0.60260000  0.89740000  0.00000000
C        C    0.74240000  0.60260000  0.10260000  0.00000000
C        C    0.89740000  0.10260000  0.24240000  0.00000000
C        C    0.60260000  0.25760000  0.89740000  0.00000000
C        C    0.60260000  0.60260000  0.75760000  0.00000000
C        C    0.75760000  0.39740000  0.60260000  0.00000000
C        C    0.74240000  0.39740000  0.10260000  0.00000000
C        C    0.75760000  0.10260000  0.89740000  0.00000000
C        C    0.75760000  0.89740000  0.89740000  0.00000000
C        C    0.60260000  0.75760000  0.39740000  0.00000000
C        C    0.60260000  0.89740000  0.74240000  0.00000000
C        C    0.89740000  0.25760000  0.60260000  0.00000000
C        C    0.24240000  0.10260000  0.10260000  0.00000000
C        C    0.10260000  0.74240000  0.39740000  0.00000000
C        C    0.10260000  0.60260000  0.74240000  0.00000000
C        C    0.25760000  0.39740000  0.10260000  0.00000000
C        C    0.10260000  0.24240000  0.10260000  0.00000000
C        C    0.60260000  0.39740000  0.24240000  0.00000000
C        C    0.75760000  0.60260000  0.39740000  0.00000000
C        C    0.60260000  0.74240000  0.10260000  0.00000000
C        C    0.89740000  0.75760000  0.10260000  0.00000000
C        C    0.88650000  0.88650000  0.72720000  0.00000000
C        C    0.38650000  0.11350000  0.22720000  0.00000000
C        C    0.88650000  0.38650000  0.22720000  0.00000000
C        C    0.88650000  0.61350000  0.22720000  0.00000000
C        C    0.72720000  0.38650000  0.38650000  0.00000000
C        C    0.88650000  0.27280000  0.11350000  0.00000000
C        C    0.22720000  0.11350000  0.61350000  0.00000000
C        C    0.11350000  0.38650000  0.77280000  0.00000000
C        C    0.61350000  0.27280000  0.61350000  0.00000000
C        C    0.38650000  0.72720000  0.38650000  0.00000000
C        C    0.38650000  0.27280000  0.61350000  0.00000000
C        C    0.38650000  0.88650000  0.77280000  0.00000000
C        C    0.11350000  0.22720000  0.38650000  0.00000000
C        C    0.27280000  0.11350000  0.88650000  0.00000000
C        C    0.77280000  0.88650000  0.61350000  0.00000000
C        C    0.11350000  0.77280000  0.61350000  0.00000000
C        C    0.27280000  0.88650000  0.11350000  0.00000000
C        C    0.38650000  0.77280000  0.11350000  0.00000000
C        C    0.88650000  0.77280000  0.38650000  0.00000000
C        C    0.38650000  0.11350000  0.77280000  0.00000000
C        C    0.88650000  0.11350000  0.72720000  0.00000000
C        C    0.61350000  0.61350000  0.27280000  0.00000000
C        C    0.11350000  0.22720000  0.61350000  0.00000000
C        C    0.61350000  0.77280000  0.88650000  0.00000000
C        C    0.11350000  0.61350000  0.22720000  0.00000000
C        C    0.72720000  0.61350000  0.61350000  0.00000000
C        C    0.11350000  0.72720000  0.88650000  0.00000000
C        C    0.27280000  0.88650000  0.88650000  0.00000000
C        C    0.88650000  0.22720000  0.38650000  0.00000000
C        C    0.88650000  0.61350000  0.77280000  0.00000000
C        C    0.77280000  0.61350000  0.88650000  0.00000000
C        C    0.38650000  0.38650000  0.72720000  0.00000000
C        C    0.11350000  0.72720000  0.11350000  0.00000000
C        C    0.38650000  0.61350000  0.27280000  0.00000000
C        C    0.61350000  0.38650000  0.72720000  0.00000000
C        C    0.11350000  0.11350000  0.27280000  0.00000000
C        C    0.27280000  0.38650000  0.61350000  0.00000000
C        C    0.27280000  0.61350000  0.38650000  0.00000000
C        C    0.88650000  0.77280000  0.61350000  0.00000000
C        C    0.77280000  0.11350000  0.38650000  0.00000000
C        C    0.61350000  0.22720000  0.11350000  0.00000000
C        C    0.38650000  0.22720000  0.88650000  0.00000000
C        C    0.88650000  0.88650000  0.27280000  0.00000000
C        C    0.88650000  0.27280000  0.88650000  0.00000000
C        C    0.38650000  0.77280000  0.88650000  0.00000000
C        C    0.77280000  0.38650000  0.88650000  0.00000000
C        C    0.38650000  0.27280000  0.38650000  0.00000000
C        C    0.11350000  0.38650000  0.22720000  0.00000000
C        C    0.11350000  0.88650000  0.72720000  0.00000000
C        C    0.11350000  0.11350000  0.72720000  0.00000000
C        C    0.61350000  0.72720000  0.61350000  0.00000000
C        C    0.27280000  0.38650000  0.38650000  0.00000000
C        C    0.88650000  0.72720000  0.88650000  0.00000000
C        C    0.72720000  0.88650000  0.11350000  0.00000000
C        C    0.61350000  0.27280000  0.38650000  0.00000000
C        C    0.22720000  0.88650000  0.61350000  0.00000000
C        C    0.27280000  0.61350000  0.61350000  0.00000000
C        C    0.88650000  0.38650000  0.77280000  0.00000000
C        C    0.77280000  0.11350000  0.61350000  0.00000000
C        C    0.22720000  0.11350000  0.38650000  0.00000000
C        C    0.61350000  0.11350000  0.77280000  0.00000000
C        C    0.38650000  0.72720000  0.61350000  0.00000000
C        C    0.22720000  0.88650000  0.38650000  0.00000000
C        C    0.38650000  0.22720000  0.11350000  0.00000000
C        C    0.61350000  0.88650000  0.22720000  0.00000000
C        C    0.38650000  0.61350000  0.72720000  0.00000000
C        C    0.22720000  0.38650000  0.88650000  0.00000000
C        C    0.38650000  0.88650000  0.22720000  0.00000000
C        C    0.11350000  0.88650000  0.27280000  0.00000000
C        C    0.77280000  0.88650000  0.38650000  0.00000000
C        C    0.22720000  0.61350000  0.11350000  0.00000000
C        C    0.11350000  0.27280000  0.88650000  0.00000000
C        C    0.72720000  0.11350000  0.11350000  0.00000000
C        C    0.61350000  0.11350000  0.22720000  0.00000000
C        C    0.38650000  0.38650000  0.27280000  0.00000000
C        C    0.22720000  0.61350000  0.88650000  0.00000000
C        C    0.77280000  0.61350000  0.11350000  0.00000000
C        C    0.88650000  0.11350000  0.27280000  0.00000000
C        C    0.61350000  0.22720000  0.88650000  0.00000000
C        C    0.61350000  0.61350000  0.72720000  0.00000000
C        C    0.72720000  0.38650000  0.61350000  0.00000000
C        C    0.77280000  0.38650000  0.11350000  0.00000000
C        C    0.72720000  0.11350000  0.88650000  0.00000000
C        C    0.72720000  0.88650000  0.88650000  0.00000000
C        C    0.61350000  0.72720000  0.38650000  0.00000000
C        C    0.61350000  0.88650000  0.77280000  0.00000000
C        C    0.88650000  0.22720000  0.61350000  0.00000000
C        C    0.27280000  0.11350000  0.11350000  0.00000000
C        C    0.11350000  0.77280000  0.38650000  0.00000000
C        C    0.11350000  0.61350000  0.77280000  0.00000000
C        C    0.22720000  0.38650000  0.11350000  0.00000000
C        C    0.11350000  0.27280000  0.11350000  0.00000000
C        C    0.61350000  0.38650000  0.27280000  0.00000000
C        C    0.72720000  0.61350000  0.38650000  0.00000000
C        C    0.61350000  0.77280000  0.11350000  0.00000000
C        C    0.88650000  0.72720000  0.11350000  0.00000000
C        C    0.87790000  0.87790000  0.70610000  0.00000000
C        C    0.37790000  0.12210000  0.20610000  0.00000000
C        C    0.87790000  0.37790000  0.20610000  0.00000000
C        C    0.87790000  0.62210000  0.20610000  0.00000000
C        C    0.70610000  0.37790000  0.37790000  0.00000000
C        C    0.87790000  0.29390000  0.12210000  0.00000000
C        C    0.20610000  0.12210000  0.62210000  0.00000000
C        C    0.12210000  0.37790000  0.79390000  0.00000000
C        C    0.62210000  0.29390000  0.62210000  0.00000000
C        C    0.37790000  0.70610000  0.37790000  0.00000000
C        C    0.37790000  0.29390000  0.62210000  0.00000000
C        C    0.37790000  0.87790000  0.79390000  0.00000000
C        C    0.12210000  0.20610000  0.37790000  0.00000000
C        C    0.29390000  0.12210000  0.87790000  0.00000000
C        C    0.79390000  0.87790000  0.62210000  0.00000000
C        C    0.12210000  0.79390000  0.62210000  0.00000000
C        C    0.29390000  0.87790000  0.12210000  0.00000000
C        C    0.37790000  0.79390000  0.12210000  0.00000000
C        C    0.87790000  0.79390000  0.37790000  0.00000000
C        C    0.37790000  0.12210000  0.79390000  0.00000000
C        C    0.87790000  0.12210000  0.70610000  0.00000000
C        C    0.62210000  0.62210000  0.29390000  0.00000000
C        C    0.12210000  0.20610000  0.62210000  0.00000000
C        C    0.62210000  0.79390000  0.87790000  0.00000000
C        C    0.12210000  0.62210000  0.20610000  0.00000000
C        C    0.70610000  0.62210000  0.62210000  0.00000000
C        C    0.12210000  0.70610000  0.87790000  0.00000000
C        C    0.29390000  0.87790000  0.87790000  0.00000000
C        C    0.87790000  0.20610000  0.37790000  0.00000000
C        C    0.87790000  0.62210000  0.79390000  0.00000000
C        C    0.79390000  0.62210000  0.87790000  0.00000000
C        C    0.37790000  0.37790000  0.70610000  0.00000000
C        C    0.12210000  0.70610000  0.12210000  0.00000000
C        C    0.37790000  0.62210000  0.29390000  0.00000000
C        C    0.62210000  0.37790000  0.70610000  0.00000000
C        C    0.12210000  0.12210000  0.29390000  0.00000000
C        C    0.29390000  0.37790000  0.62210000  0.00000000
C        C    0.29390000  0.62210000  0.37790000  0.00000000
C        C    0.87790000  0.79390000  0.62210000  0.00000000
C        C    0.79390000  0.12210000  0.37790000  0.00000000
C        C    0.62210000  0.20610000  0.12210000  0.00000000
C        C    0.37790000  0.20610000  0.87790000  0.00000000
C        C    0.87790000  0.87790000  0.29390000  0.00000000
C        C    0.87790000  0.29390000  0.87790000  0.00000000
C        C    0.37790000  0.79390000  0.87790000  0.00000000
C        C    0.79390000  0.37790000  0.87790000  0.00000000
C        C    0.37790000  0.29390000  0.37790000  0.00000000
C        C    0.12210000  0.37790000  0.20610000  0.00000000
C        C    0.12210000  0.87790000  0.70610000  0.00000000
C        C    0.12210000  0.12210000  0.70610000  0.00000000
C        C    0.62210000  0.70610000  0.62210000  0.00000000
C        C    0.29390000  0.37790000  0.37790000  0.00000000
C        C    0.87790000  0.70610000  0.87790000  0.00000000
C        C    0.70610000  0.87790000  0.12210000  0.00000000
C        C    0.62210000  0.29390000  0.37790000  0.00000000
C        C    0.20610000  0.87790000  0.62210000  0.00000000
C        C    0.29390000  0.62210000  0.62210000  0.00000000
C        C    0.87790000  0.37790000  0.79390000  0.00000000
C        C    0.79390000  0.12210000  0.62210000  0.00000000
C        C    0.20610000  0.12210000  0.37790000  0.00000000
C        C    0.62210000  0.12210000  0.79390000  0.00000000
C        C    0.37790000  0.70610000  0.62210000  0.00000000
C        C    0.20610000  0.87790000  0.37790000  0.00000000
C        C    0.37790000  0.20610000  0.12210000  0.00000000
C        C    0.62210000  0.87790000  0.20610000  0.00000000
C        C    0.37790000  0.62210000  0.70610000  0.00000000
C        C    0.20610000  0.37790000  0.87790000  0.00000000
C        C    0.37790000  0.87790000  0.20610000  0.00000000
C        C    0.12210000  0.87790000  0.29390000  0.00000000
C        C    0.79390000  0.87790000  0.37790000  0.00000000
C        C    0.20610000  0.62210000  0.12210000  0.00000000
C        C    0.12210000  0.29390000  0.87790000  0.00000000
C        C    0.70610000  0.12210000  0.12210000  0.00000000
C        C    0.62210000  0.12210000  0.20610000  0.00000000
C        C    0.37790000  0.37790000  0.29390000  0.00000000
C        C    0.20610000  0.62210000  0.87790000  0.00000000
C        C    0.79390000  0.62210000  0.12210000  0.00000000
C        C    0.87790000  0.12210000  0.29390000  0.00000000
C        C    0.62210000  0.20610000  0.87790000  0.00000000
C        C    0.62210000  0.62210000  0.70610000  0.00000000
C        C    0.70610000  0.37790000  0.62210000  0.00000000
C        C    0.79390000  0.37790000  0.12210000  0.00000000
C        C    0.70610000  0.12210000  0.87790000  0.00000000
C        C    0.70610000  0.87790000  0.87790000  0.00000000
C        C    0.62210000  0.70610000  0.37790000  0.00000000
C        C    0.62210000  0.87790000  0.79390000  0.00000000
C        C    0.87790000  0.20610000  0.62210000  0.00000000
C        C    0.29390000  0.12210000  0.12210000  0.00000000
C        C    0.12210000  0.79390000  0.37790000  0.00000000
C        C    0.12210000  0.62210000  0.79390000  0.00000000
C        C    0.20610000  0.37790000  0.12210000  0.00000000
C        C    0.12210000  0.29390000  0.12210000  0.00000000
C        C    0.62210000  0.37790000  0.29390000  0.00000000
C        C    0.70610000  0.62210000  0.37790000  0.00000000
C        C    0.62210000  0.79390000  0.12210000  0.00000000
C        C    0.87790000  0.70610000  0.12210000  0.00000000
C        C    0.86600000  0.86600000  0.67680000  0.00000000
C        C    0.36600000  0.13400000  0.17680000  0.00000000
C        C    0.86600000  0.36600000  0.17680000  0.00000000
C        C    0.86600000  0.63400000  0.17680000  0.00000000
C        C    0.67680000  0.36600000  0.36600000  0.00000000
C        C    0.86600000  0.32320000  0.13400000  0.00000000
C        C    0.17680000  0.13400000  0.63400000  0.00000000
C        C    0.13400000  0.36600000  0.82320000  0.00000000
C        C    0.63400000  0.32320000  0.63400000  0.00000000
C        C    0.36600000  0.67680000  0.36600000  0.00000000
C        C    0.36600000  0.32320000  0.63400000  0.00000000
C        C    0.36600000  0.86600000  0.82320000  0.00000000
C        C    0.13400000  0.17680000  0.36600000  0.00000000
C        C    0.32320000  0.13400000  0.86600000  0.00000000
C        C    0.82320000  0.86600000  0.63400000  0.00000000
C        C    0.13400000  0.82320000  0.63400000  0.00000000
C        C    0.32320000  0.86600000  0.13400000  0.00000000
C        C    0.36600000  0.82320000  0.13400000  0.00000000
C        C    0.86600000  0.82320000  0.36600000  0.00000000
C        C    0.36600000  0.13400000  0.82320000  0.00000000
C        C    0.86600000  0.13400000  0.67680000  0.00000000
C        C    0.63400000  0.63400000  0.32320000  0.00000000
C        C    0.13400000  0.17680000  0.63400000  0.00000000
C        C    0.63400000  0.82320000  0.86600000  0.00000000
C        C    0.13400000  0.63400000  0.17680000  0.00000000
C        C    0.67680000  0.63400000  0.63400000  0.00000000
C        C    0.13400000  0.67680000  0.86600000  0.00000000
C        C    0.32320000  0.86600000  0.86600000  0.00000000
C        C    0.86600000  0.17680000  0.36600000  0.00000000
C        C    0.86600000  0.63400000  0.82320000  0.00000000
C        C    0.82320000  0.63400000  0.86600000  0.00000000
C        C    0.36600000  0.36600000  0.67680000  0.00000000
C        C    0.13400000  0.67680000  0.13400000  0.00000000
C        C    0.36600000  0.63400000  0.32320000  0.00000000
C        C    0.63400000  0.36600000  0.67680000  0.00000000
C        C    0.13400000  0.13400000  0.32320000  0.00000000
C        C    0.32320000  0.36600000  0.63400000  0.00000000
C        C    0.32320000  0.63400000  0.36600000  0.00000000
C        C    0.86600000  0.82320000  0.63400000  0.00000000
C        C    0.82320000  0.13400000  0.36600000  0.00000000
C        C    0.63400000  0.17680000  0.13400000  0.00000000
C        C    0.36600000  0.17680000  0.86600000  0.00000000
C        C    0.86600000  0.86600000  0.32320000  0.00000000
C        C    0.86600000  0.32320000  0.86600000  0.00000000
C        C    0.36600000  0.82320000  0.86600000  0.00000000
C        C    0.82320000  0.36600000  0.86600000  0.00000000
C        C    0.36600000  0.32320000  0.36600000  0.00000000
C        C    0.13400000  0.36600000  0.17680000  0.00000000
C        C    0.13400000  0.86600000  0.67680000  0.00000000
C        C    0.13400000  0.13400000  0.67680000  0.00000000
C        C    0.63400000  0.67680000  0.63400000  0.00000000
C        C    0.32320000  0.36600000  0.36600000  0.00000000
C        C    0.86600000  0.67680000  0.86600000  0.00000000
C        C    0.67680000  0.86600000  0.13400000  0.00000000
C        C    0.63400000  0.32320000  0.36600000  0.00000000
C        C    0.17680000  0.86600000  0.63400000  0.00000000
C        C    0.32320000  0.63400000  0.63400000  0.00000000
C        C    0.86600000  0.36600000  0.82320000  0.00000000
C        C    0.82320000  0.13400000  0.63400000  0.00000000
C        C    0.17680000  0.13400000  0.36600000  0.00000000
C        C    0.63400000  0.13400000  0.82320000  0.00000000
C        C    0.36600000  0.67680000  0.63400000  0.00000000
C        C    0.17680000  0.86600000  0.36600000  0.00000000
C        C    0.36600000  0.17680000  0.13400000  0.00000000
C        C    0.63400000  0.86600000  0.17680000  0.00000000
C        C    0.36600000  0.63400000  0.67680000  0.00000000
C        C    0.17680000  0.36600000  0.86600000  0.00000000
C        C    0.36600000  0.86600000  0.17680000  0.00000000
C        C    0.13400000  0.86600000  0.32320000  0.00000000
C        C    0.82320000  0.86600000  0.36600000  0.00000000
C        C    0.17680000  0.63400000  0.13400000  0.00000000
C        C    0.13400000  0.32320000  0.86600000  0.00000000
C        C    0.67680000  0.13400000  0.13400000  0.00000000
C        C    0.63400000  0.13400000  0.17680000  0.00000000
C        C    0.36600000  0.36600000  0.32320000  0.00000000
C        C    0.17680000  0.63400000  0.86600000  0.00000000
C        C    0.82320000  0.63400000  0.13400000  0.00000000
C        C    0.86600000  0.13400000  0.32320000  0.00000000
C        C    0.63400000  0.17680000  0.86600000  0.00000000
C        C    0.63400000  0.63400000  0.67680000  0.00000000
C        C    0.67680000  0.36600000  0.63400000  0.00000000
C        C    0.82320000  0.36600000  0.13400000  0.00000000
C        C    0.67680000  0.13400000  0.86600000  0.00000000
C        C    0.67680000  0.86600000  0.86600000  0.00000000
C        C    0.63400000  0.67680000  0.36600000  0.00000000
C        C    0.63400000  0.86600000  0.82320000  0.00000000
C        C    0.86600000  0.17680000  0.63400000  0.00000000
C        C    0.32320000  0.13400000  0.13400000  0.00000000
C        C    0.13400000  0.82320000  0.36600000  0.00000000
C        C    0.13400000  0.63400000  0.82320000  0.00000000
C        C    0.17680000  0.36600000  0.13400000  0.00000000
C        C    0.13400000  0.32320000  0.13400000  0.00000000
C        C    0.63400000  0.36600000  0.32320000  0.00000000
C        C    0.67680000  0.63400000  0.36600000  0.00000000
C        C    0.63400000  0.82320000  0.13400000  0.00000000
C        C    0.86600000  0.67680000  0.13400000  0.00000000
C        C    0.83870000  0.33870000  0.12150000  0.00000000
C        C    0.83870000  0.87850000  0.66130000  0.00000000
C        C    0.87850000  0.83870000  0.33870000  0.00000000
C        C    0.66130000  0.37850000  0.33870000  0.00000000
C        C    0.83870000  0.16130000  0.62150000  0.00000000
C        C    0.33870000  0.66130000  0.62150000  0.00000000
C        C    0.66130000  0.33870000  0.37850000  0.00000000
C        C    0.87850000  0.33870000  0.16130000  0.00000000
C        C    0.16130000  0.12150000  0.66130000  0.00000000
C        C    0.37850000  0.83870000  0.16130000  0.00000000
C        C    0.33870000  0.66130000  0.37850000  0.00000000
C        C    0.16130000  0.16130000  0.37850000  0.00000000
C        C    0.66130000  0.12150000  0.16130000  0.00000000
C        C    0.37850000  0.66130000  0.33870000  0.00000000
C        C    0.33870000  0.33870000  0.62150000  0.00000000
C        C    0.87850000  0.83870000  0.66130000  0.00000000
C        C    0.37850000  0.83870000  0.83870000  0.00000000
C        C    0.62150000  0.33870000  0.66130000  0.00000000
C        C    0.37850000  0.16130000  0.16130000  0.00000000
C        C    0.37850000  0.16130000  0.83870000  0.00000000
C        C    0.33870000  0.83870000  0.12150000  0.00000000
C        C    0.33870000  0.12150000  0.83870000  0.00000000
C        C    0.62150000  0.66130000  0.33870000  0.00000000
C        C    0.33870000  0.87850000  0.83870000  0.00000000
C        C    0.12150000  0.33870000  0.16130000  0.00000000
C        C    0.16130000  0.16130000  0.62150000  0.00000000
C        C    0.83870000  0.62150000  0.83870000  0.00000000
C        C    0.83870000  0.66130000  0.87850000  0.00000000
C        C    0.37850000  0.33870000  0.66130000  0.00000000
C        C    0.12150000  0.66130000  0.16130000  0.00000000
C        C    0.66130000  0.37850000  0.66130000  0.00000000
C        C    0.12150000  0.16130000  0.33870000  0.00000000
C        C    0.33870000  0.37850000  0.66130000  0.00000000
C        C    0.33870000  0.62150000  0.33870000  0.00000000
C        C    0.83870000  0.83870000  0.62150000  0.00000000
C        C    0.83870000  0.16130000  0.37850000  0.00000000
C        C    0.16130000  0.62150000  0.83870000  0.00000000
C        C    0.33870000  0.16130000  0.87850000  0.00000000
C        C    0.87850000  0.16130000  0.33870000  0.00000000
C        C    0.16130000  0.83870000  0.62150000  0.00000000
C        C    0.83870000  0.87850000  0.33870000  0.00000000
C        C    0.83870000  0.33870000  0.87850000  0.00000000
C        C    0.33870000  0.83870000  0.87850000  0.00000000
C        C    0.83870000  0.37850000  0.83870000  0.00000000
C        C    0.37850000  0.33870000  0.33870000  0.00000000
C        C    0.12150000  0.83870000  0.66130000  0.00000000
C        C    0.12150000  0.16130000  0.66130000  0.00000000
C        C    0.66130000  0.66130000  0.62150000  0.00000000
C        C    0.33870000  0.33870000  0.37850000  0.00000000
C        C    0.16130000  0.83870000  0.37850000  0.00000000
C        C    0.16130000  0.33870000  0.87850000  0.00000000
C        C    0.87850000  0.66130000  0.83870000  0.00000000
C        C    0.66130000  0.83870000  0.12150000  0.00000000
C        C    0.16130000  0.87850000  0.66130000  0.00000000
C        C    0.87850000  0.33870000  0.83870000  0.00000000
C        C    0.83870000  0.12150000  0.66130000  0.00000000
C        C    0.16130000  0.12150000  0.33870000  0.00000000
C        C    0.37850000  0.66130000  0.66130000  0.00000000
C        C    0.16130000  0.87850000  0.33870000  0.00000000
C        C    0.16130000  0.66130000  0.12150000  0.00000000
C        C    0.33870000  0.16130000  0.12150000  0.00000000
C        C    0.66130000  0.87850000  0.16130000  0.00000000
C        C    0.66130000  0.62150000  0.66130000  0.00000000
C        C    0.33870000  0.62150000  0.66130000  0.00000000
C        C    0.16130000  0.37850000  0.83870000  0.00000000
C        C    0.33870000  0.87850000  0.16130000  0.00000000
C        C    0.83870000  0.83870000  0.37850000  0.00000000
C        C    0.16130000  0.62150000  0.16130000  0.00000000
C        C    0.12150000  0.33870000  0.83870000  0.00000000
C        C    0.66130000  0.16130000  0.12150000  0.00000000
C        C    0.62150000  0.16130000  0.16130000  0.00000000
C        C    0.33870000  0.37850000  0.33870000  0.00000000
C        C    0.16130000  0.66130000  0.87850000  0.00000000
C        C    0.83870000  0.62150000  0.16130000  0.00000000
C        C    0.83870000  0.12150000  0.33870000  0.00000000
C        C    0.62150000  0.16130000  0.83870000  0.00000000
C        C    0.66130000  0.16130000  0.87850000  0.00000000
C        C    0.87850000  0.66130000  0.16130000  0.00000000
C        C    0.62150000  0.66130000  0.66130000  0.00000000
C        C    0.66130000  0.33870000  0.62150000  0.00000000
C        C    0.83870000  0.37850000  0.16130000  0.00000000
C        C    0.66130000  0.12150000  0.83870000  0.00000000
C        C    0.66130000  0.83870000  0.87850000  0.00000000
C        C    0.66130000  0.87850000  0.83870000  0.00000000
C        C    0.66130000  0.66130000  0.37850000  0.00000000
C        C    0.62150000  0.83870000  0.83870000  0.00000000
C        C    0.87850000  0.16130000  0.66130000  0.00000000
C        C    0.33870000  0.12150000  0.16130000  0.00000000
C        C    0.12150000  0.83870000  0.33870000  0.00000000
C        C    0.12150000  0.66130000  0.83870000  0.00000000
C        C    0.16130000  0.37850000  0.16130000  0.00000000
C        C    0.16130000  0.33870000  0.12150000  0.00000000
C        C    0.62150000  0.33870000  0.33870000  0.00000000
C        C    0.66130000  0.62150000  0.33870000  0.00000000
C        C    0.62150000  0.83870000  0.16130000  0.00000000
C        C    0.83870000  0.66130000  0.12150000  0.00000000
H        H    0.83010000  0.33010000  0.10300000  0.00000000
H        H    0.83010000  0.89700000  0.66990000  0.00000000
H        H    0.89700000  0.83010000  0.33010000  0.00000000
H        H    0.66990000  0.39700000  0.33010000  0.00000000
H        H    0.83010000  0.16990000  0.60300000  0.00000000
H        H    0.33010000  0.66990000  0.60300000  0.00000000
H        H    0.66990000  0.33010000  0.39700000  0.00000000
H        H    0.89700000  0.33010000  0.16990000  0.00000000
H        H    0.16990000  0.10300000  0.66990000  0.00000000
H        H    0.39700000  0.83010000  0.16990000  0.00000000
H        H    0.33010000  0.66990000  0.39700000  0.00000000
H        H    0.16990000  0.16990000  0.39700000  0.00000000
H        H    0.66990000  0.10300000  0.16990000  0.00000000
H        H    0.39700000  0.66990000  0.33010000  0.00000000
H        H    0.33010000  0.33010000  0.60300000  0.00000000
H        H    0.89700000  0.83010000  0.66990000  0.00000000
H        H    0.39700000  0.83010000  0.83010000  0.00000000
H        H    0.60300000  0.33010000  0.66990000  0.00000000
H        H    0.39700000  0.16990000  0.16990000  0.00000000
H        H    0.39700000  0.16990000  0.83010000  0.00000000
H        H    0.33010000  0.83010000  0.10300000  0.00000000
H        H    0.33010000  0.10300000  0.83010000  0.00000000
H        H    0.60300000  0.66990000  0.33010000  0.00000000
H        H    0.33010000  0.89700000  0.83010000  0.00000000
H        H    0.10300000  0.33010000  0.16990000  0.00000000
H        H    0.16990000  0.16990000  0.60300000  0.00000000
H        H    0.83010000  0.60300000  0.83010000  0.00000000
H        H    0.83010000  0.66990000  0.89700000  0.00000000
H        H    0.39700000  0.33010000  0.66990000  0.00000000
H        H    0.10300000  0.66990000  0.16990000  0.00000000
H        H    0.66990000  0.39700000  0.66990000  0.00000000
H        H    0.10300000  0.16990000  0.33010000  0.00000000
H        H    0.33010000  0.39700000  0.66990000  0.00000000
H        H    0.33010000  0.60300000  0.33010000  0.00000000
H        H    0.83010000  0.83010000  0.60300000  0.00000000
H        H    0.83010000  0.16990000  0.39700000  0.00000000
H        H    0.16990000  0.60300000  0.83010000  0.00000000
H        H    0.33010000  0.16990000  0.89700000  0.00000000
H        H    0.89700000  0.16990000  0.33010000  0.00000000
H        H    0.16990000  0.83010000  0.60300000  0.00000000
H        H    0.83010000  0.89700000  0.33010000  0.00000000
H        H    0.83010000  0.33010000  0.89700000  0.00000000
H        H    0.33010000  0.83010000  0.89700000  0.00000000
H        H    0.83010000  0.39700000  0.83010000  0.00000000
H        H    0.39700000  0.33010000  0.33010000  0.00000000
H        H    0.10300000  0.83010000  0.66990000  0.00000000
H        H    0.10300000  0.16990000  0.66990000  0.00000000
H        H    0.66990000  0.66990000  0.60300000  0.00000000
H        H    0.33010000  0.33010000  0.39700000  0.00000000
H        H    0.16990000  0.83010000  0.39700000  0.00000000
H        H    0.16990000  0.33010000  0.89700000  0.00000000
H        H    0.89700000  0.66990000  0.83010000  0.00000000
H        H    0.66990000  0.83010000  0.10300000  0.00000000
H        H    0.16990000  0.89700000  0.66990000  0.00000000
H        H    0.89700000  0.33010000  0.83010000  0.00000000
H        H    0.83010000  0.10300000  0.66990000  0.00000000
H        H    0.16990000  0.10300000  0.33010000  0.00000000
H        H    0.39700000  0.66990000  0.66990000  0.00000000
H        H    0.16990000  0.89700000  0.33010000  0.00000000
H        H    0.16990000  0.66990000  0.10300000  0.00000000
H        H    0.33010000  0.16990000  0.10300000  0.00000000
H        H    0.66990000  0.89700000  0.16990000  0.00000000
H        H    0.66990000  0.60300000  0.66990000  0.00000000
H        H    0.33010000  0.60300000  0.66990000  0.00000000
H        H    0.16990000  0.39700000  0.83010000  0.00000000
H        H    0.33010000  0.89700000  0.16990000  0.00000000
H        H    0.83010000  0.83010000  0.39700000  0.00000000
H        H    0.16990000  0.60300000  0.16990000  0.00000000
H        H    0.10300000  0.33010000  0.83010000  0.00000000
H        H    0.66990000  0.16990000  0.10300000  0.00000000
H        H    0.60300000  0.16990000  0.16990000  0.00000000
H        H    0.33010000  0.39700000  0.33010000  0.00000000
H        H    0.16990000  0.66990000  0.89700000  0.00000000
H        H    0.83010000  0.60300000  0.16990000  0.00000000
H        H    0.83010000  0.10300000  0.33010000  0.00000000
H        H    0.60300000  0.16990000  0.83010000  0.00000000
H        H    0.66990000  0.16990000  0.89700000  0.00000000
H        H    0.89700000  0.66990000  0.16990000  0.00000000
H        H    0.60300000  0.66990000  0.66990000  0.00000000
H        H    0.66990000  0.33010000  0.60300000  0.00000000
H        H    0.83010000  0.39700000  0.16990000  0.00000000
H        H    0.66990000  0.10300000  0.83010000  0.00000000
H        H    0.66990000  0.83010000  0.89700000  0.00000000
H        H    0.66990000  0.89700000  0.83010000  0.00000000
H        H    0.66990000  0.66990000  0.39700000  0.00000000
H        H    0.60300000  0.83010000  0.83010000  0.00000000
H        H    0.89700000  0.16990000  0.66990000  0.00000000
H        H    0.33010000  0.10300000  0.16990000  0.00000000
H        H    0.10300000  0.83010000  0.33010000  0.00000000
H        H    0.10300000  0.66990000  0.83010000  0.00000000
H        H    0.16990000  0.39700000  0.16990000  0.00000000
H        H    0.16990000  0.33010000  0.10300000  0.00000000
H        H    0.60300000  0.33010000  0.33010000  0.00000000
H        H    0.66990000  0.60300000  0.33010000  0.00000000
H        H    0.60300000  0.83010000  0.16990000  0.00000000
H        H    0.83010000  0.66990000  0.10300000  0.00000000
