data_PCN-60

_cell_length_a  42.84340000
_cell_length_b  42.84340000
_cell_length_c  42.84340000
_cell_angle_alpha  90.00000000
_cell_angle_beta  90.00000000
_cell_angle_gamma  90.00000000


_symmetry_space_group_name_Hall ' P 1'
_symmetry_space_group_name_H-M  'P 1'
_symmetry_Int_Tables_number     1

loop_
_atom_site_label
_atom_site_type_symbol
_atom_site_fract_x
_atom_site_fract_y
_atom_site_fract_z
_atom_site_charge
Zn       Zn   0.00000000  0.37113300  0.37113300  0.00000000
Zn       Zn   0.37113300  0.12886700  0.50000000  0.00000000
Zn       Zn   0.12886700  0.00000000  0.87113300  0.00000000
Zn       Zn   0.12886700  0.87113300  0.00000000  0.00000000
Zn       Zn   0.87113300  0.50000000  0.62886700  0.00000000
Zn       Zn   0.87113300  0.62886700  0.50000000  0.00000000
Zn       Zn   0.62886700  0.12886700  0.50000000  0.00000000
Zn       Zn   0.00000000  0.12886700  0.12886700  0.00000000
Zn       Zn   0.37113300  0.87113300  0.50000000  0.00000000
Zn       Zn   0.50000000  0.87113300  0.37113300  0.00000000
Zn       Zn   0.62886700  0.62886700  0.00000000  0.00000000
Zn       Zn   0.12886700  0.50000000  0.37113300  0.00000000
Zn       Zn   0.12886700  0.37113300  0.50000000  0.00000000
Zn       Zn   0.12886700  0.62886700  0.50000000  0.00000000
Zn       Zn   0.00000000  0.87113300  0.87113300  0.00000000
Zn       Zn   0.37113300  0.00000000  0.62886700  0.00000000
Zn       Zn   0.12886700  0.50000000  0.62886700  0.00000000
Zn       Zn   0.62886700  0.00000000  0.62886700  0.00000000
Zn       Zn   0.50000000  0.12886700  0.62886700  0.00000000
Zn       Zn   0.37113300  0.37113300  0.00000000  0.00000000
Zn       Zn   0.62886700  0.00000000  0.37113300  0.00000000
Zn       Zn   0.62886700  0.50000000  0.87113300  0.00000000
Zn       Zn   0.37113300  0.50000000  0.87113300  0.00000000
Zn       Zn   0.37113300  0.00000000  0.37113300  0.00000000
Zn       Zn   0.00000000  0.12886700  0.87113300  0.00000000
Zn       Zn   0.87113300  0.12886700  0.00000000  0.00000000
Zn       Zn   0.50000000  0.12886700  0.37113300  0.00000000
Zn       Zn   0.37113300  0.62886700  0.00000000  0.00000000
Zn       Zn   0.87113300  0.00000000  0.12886700  0.00000000
Zn       Zn   0.50000000  0.37113300  0.87113300  0.00000000
Zn       Zn   0.62886700  0.37113300  0.00000000  0.00000000
Zn       Zn   0.00000000  0.87113300  0.12886700  0.00000000
Zn       Zn   0.50000000  0.62886700  0.87113300  0.00000000
Zn       Zn   0.87113300  0.37113300  0.50000000  0.00000000
Zn       Zn   0.62886700  0.50000000  0.12886700  0.00000000
Zn       Zn   0.87113300  0.00000000  0.87113300  0.00000000
Zn       Zn   0.62886700  0.87113300  0.50000000  0.00000000
Zn       Zn   0.50000000  0.87113300  0.62886700  0.00000000
Zn       Zn   0.00000000  0.37113300  0.62886700  0.00000000
Zn       Zn   0.12886700  0.00000000  0.12886700  0.00000000
Zn       Zn   0.00000000  0.62886700  0.37113300  0.00000000
Zn       Zn   0.00000000  0.62886700  0.62886700  0.00000000
Zn       Zn   0.37113300  0.50000000  0.12886700  0.00000000
Zn       Zn   0.12886700  0.12886700  0.00000000  0.00000000
Zn       Zn   0.50000000  0.37113300  0.12886700  0.00000000
Zn       Zn   0.87113300  0.50000000  0.37113300  0.00000000
Zn       Zn   0.50000000  0.62886700  0.12886700  0.00000000
Zn       Zn   0.87113300  0.87113300  0.00000000  0.00000000
Zn       Zn   0.00000000  0.32110500  0.32110500  0.00000000
Zn       Zn   0.32110500  0.17889500  0.50000000  0.00000000
Zn       Zn   0.17889500  0.00000000  0.82110500  0.00000000
Zn       Zn   0.17889500  0.82110500  0.00000000  0.00000000
Zn       Zn   0.82110500  0.50000000  0.67889500  0.00000000
Zn       Zn   0.82110500  0.67889500  0.50000000  0.00000000
Zn       Zn   0.67889500  0.17889500  0.50000000  0.00000000
Zn       Zn   0.00000000  0.17889500  0.17889500  0.00000000
Zn       Zn   0.32110500  0.82110500  0.50000000  0.00000000
Zn       Zn   0.50000000  0.82110500  0.32110500  0.00000000
Zn       Zn   0.67889500  0.67889500  0.00000000  0.00000000
Zn       Zn   0.17889500  0.50000000  0.32110500  0.00000000
Zn       Zn   0.17889500  0.32110500  0.50000000  0.00000000
Zn       Zn   0.17889500  0.67889500  0.50000000  0.00000000
Zn       Zn   0.00000000  0.82110500  0.82110500  0.00000000
Zn       Zn   0.32110500  0.00000000  0.67889500  0.00000000
Zn       Zn   0.17889500  0.50000000  0.67889500  0.00000000
Zn       Zn   0.67889500  0.00000000  0.67889500  0.00000000
Zn       Zn   0.50000000  0.17889500  0.67889500  0.00000000
Zn       Zn   0.32110500  0.32110500  0.00000000  0.00000000
Zn       Zn   0.67889500  0.00000000  0.32110500  0.00000000
Zn       Zn   0.67889500  0.50000000  0.82110500  0.00000000
Zn       Zn   0.32110500  0.50000000  0.82110500  0.00000000
Zn       Zn   0.32110500  0.00000000  0.32110500  0.00000000
Zn       Zn   0.00000000  0.17889500  0.82110500  0.00000000
Zn       Zn   0.82110500  0.17889500  0.00000000  0.00000000
Zn       Zn   0.50000000  0.17889500  0.32110500  0.00000000
Zn       Zn   0.32110500  0.67889500  0.00000000  0.00000000
Zn       Zn   0.82110500  0.00000000  0.17889500  0.00000000
Zn       Zn   0.50000000  0.32110500  0.82110500  0.00000000
Zn       Zn   0.67889500  0.32110500  0.00000000  0.00000000
Zn       Zn   0.00000000  0.82110500  0.17889500  0.00000000
Zn       Zn   0.50000000  0.67889500  0.82110500  0.00000000
Zn       Zn   0.82110500  0.32110500  0.50000000  0.00000000
Zn       Zn   0.67889500  0.50000000  0.17889500  0.00000000
Zn       Zn   0.82110500  0.00000000  0.82110500  0.00000000
Zn       Zn   0.67889500  0.82110500  0.50000000  0.00000000
Zn       Zn   0.50000000  0.82110500  0.67889500  0.00000000
Zn       Zn   0.00000000  0.32110500  0.67889500  0.00000000
Zn       Zn   0.17889500  0.00000000  0.17889500  0.00000000
Zn       Zn   0.00000000  0.67889500  0.32110500  0.00000000
Zn       Zn   0.00000000  0.67889500  0.67889500  0.00000000
Zn       Zn   0.32110500  0.50000000  0.17889500  0.00000000
Zn       Zn   0.17889500  0.17889500  0.00000000  0.00000000
Zn       Zn   0.50000000  0.32110500  0.17889500  0.00000000
Zn       Zn   0.82110500  0.50000000  0.32110500  0.00000000
Zn       Zn   0.50000000  0.67889500  0.17889500  0.00000000
Zn       Zn   0.82110500  0.82110500  0.00000000  0.00000000
O        O    0.84142000  0.53285000  0.61240000  0.00000000
O        O    0.46715000  0.11240000  0.34142000  0.00000000
O        O    0.65858000  0.53285000  0.88760000  0.00000000
O        O    0.11240000  0.15858000  0.96715000  0.00000000
O        O    0.96715000  0.38760000  0.34142000  0.00000000
O        O    0.88760000  0.96715000  0.84142000  0.00000000
O        O    0.88760000  0.15858000  0.03285000  0.00000000
O        O    0.11240000  0.84142000  0.96715000  0.00000000
O        O    0.96715000  0.88760000  0.84142000  0.00000000
O        O    0.96715000  0.61240000  0.34142000  0.00000000
O        O    0.65858000  0.38760000  0.03285000  0.00000000
O        O    0.11240000  0.53285000  0.65858000  0.00000000
O        O    0.11240000  0.03285000  0.84142000  0.00000000
O        O    0.96715000  0.65858000  0.38760000  0.00000000
O        O    0.34142000  0.88760000  0.46715000  0.00000000
O        O    0.65858000  0.96715000  0.61240000  0.00000000
O        O    0.46715000  0.11240000  0.65858000  0.00000000
O        O    0.46715000  0.84142000  0.38760000  0.00000000
O        O    0.11240000  0.46715000  0.65858000  0.00000000
O        O    0.84142000  0.46715000  0.61240000  0.00000000
O        O    0.46715000  0.88760000  0.34142000  0.00000000
O        O    0.34142000  0.11240000  0.46715000  0.00000000
O        O    0.84142000  0.61240000  0.46715000  0.00000000
O        O    0.46715000  0.61240000  0.84142000  0.00000000
O        O    0.38760000  0.96715000  0.65858000  0.00000000
O        O    0.84142000  0.03285000  0.11240000  0.00000000
O        O    0.15858000  0.61240000  0.46715000  0.00000000
O        O    0.15858000  0.61240000  0.53285000  0.00000000
O        O    0.61240000  0.15858000  0.53285000  0.00000000
O        O    0.53285000  0.65858000  0.88760000  0.00000000
O        O    0.53285000  0.84142000  0.61240000  0.00000000
O        O    0.34142000  0.11240000  0.53285000  0.00000000
O        O    0.15858000  0.03285000  0.88760000  0.00000000
O        O    0.11240000  0.53285000  0.34142000  0.00000000
O        O    0.84142000  0.46715000  0.38760000  0.00000000
O        O    0.65858000  0.11240000  0.53285000  0.00000000
O        O    0.96715000  0.88760000  0.15858000  0.00000000
O        O    0.38760000  0.46715000  0.84142000  0.00000000
O        O    0.53285000  0.84142000  0.38760000  0.00000000
O        O    0.61240000  0.46715000  0.15858000  0.00000000
O        O    0.96715000  0.15858000  0.88760000  0.00000000
O        O    0.11240000  0.96715000  0.15858000  0.00000000
O        O    0.38760000  0.03285000  0.34142000  0.00000000
O        O    0.03285000  0.34142000  0.61240000  0.00000000
O        O    0.61240000  0.03285000  0.65858000  0.00000000
O        O    0.88760000  0.34142000  0.53285000  0.00000000
O        O    0.88760000  0.46715000  0.34142000  0.00000000
O        O    0.88760000  0.53285000  0.34142000  0.00000000
O        O    0.38760000  0.84142000  0.53285000  0.00000000
O        O    0.61240000  0.15858000  0.46715000  0.00000000
O        O    0.84142000  0.38760000  0.46715000  0.00000000
O        O    0.96715000  0.15858000  0.11240000  0.00000000
O        O    0.03285000  0.38760000  0.34142000  0.00000000
O        O    0.34142000  0.03285000  0.61240000  0.00000000
O        O    0.61240000  0.65858000  0.03285000  0.00000000
O        O    0.46715000  0.38760000  0.15858000  0.00000000
O        O    0.46715000  0.65858000  0.11240000  0.00000000
O        O    0.88760000  0.46715000  0.65858000  0.00000000
O        O    0.61240000  0.53285000  0.15858000  0.00000000
O        O    0.03285000  0.38760000  0.65858000  0.00000000
O        O    0.11240000  0.65858000  0.53285000  0.00000000
O        O    0.53285000  0.15858000  0.61240000  0.00000000
O        O    0.38760000  0.15858000  0.53285000  0.00000000
O        O    0.15858000  0.46715000  0.38760000  0.00000000
O        O    0.38760000  0.84142000  0.46715000  0.00000000
O        O    0.46715000  0.15858000  0.61240000  0.00000000
O        O    0.03285000  0.34142000  0.38760000  0.00000000
O        O    0.15858000  0.96715000  0.11240000  0.00000000
O        O    0.96715000  0.34142000  0.38760000  0.00000000
O        O    0.11240000  0.84142000  0.03285000  0.00000000
O        O    0.96715000  0.61240000  0.65858000  0.00000000
O        O    0.38760000  0.15858000  0.46715000  0.00000000
O        O    0.46715000  0.88760000  0.65858000  0.00000000
O        O    0.11240000  0.34142000  0.46715000  0.00000000
O        O    0.61240000  0.03285000  0.34142000  0.00000000
O        O    0.11240000  0.96715000  0.84142000  0.00000000
O        O    0.46715000  0.61240000  0.15858000  0.00000000
O        O    0.15858000  0.11240000  0.96715000  0.00000000
O        O    0.84142000  0.96715000  0.11240000  0.00000000
O        O    0.15858000  0.38760000  0.53285000  0.00000000
O        O    0.96715000  0.65858000  0.61240000  0.00000000
O        O    0.65858000  0.03285000  0.38760000  0.00000000
O        O    0.46715000  0.65858000  0.88760000  0.00000000
O        O    0.65858000  0.88760000  0.53285000  0.00000000
O        O    0.53285000  0.38760000  0.84142000  0.00000000
O        O    0.11240000  0.03285000  0.15858000  0.00000000
O        O    0.46715000  0.34142000  0.11240000  0.00000000
O        O    0.88760000  0.84142000  0.96715000  0.00000000
O        O    0.46715000  0.34142000  0.88760000  0.00000000
O        O    0.03285000  0.65858000  0.61240000  0.00000000
O        O    0.96715000  0.11240000  0.84142000  0.00000000
O        O    0.61240000  0.34142000  0.03285000  0.00000000
O        O    0.15858000  0.88760000  0.03285000  0.00000000
O        O    0.38760000  0.65858000  0.03285000  0.00000000
O        O    0.88760000  0.65858000  0.46715000  0.00000000
O        O    0.38760000  0.03285000  0.65858000  0.00000000
O        O    0.88760000  0.03285000  0.84142000  0.00000000
O        O    0.53285000  0.61240000  0.15858000  0.00000000
O        O    0.65858000  0.38760000  0.96715000  0.00000000
O        O    0.15858000  0.96715000  0.88760000  0.00000000
O        O    0.03285000  0.15858000  0.11240000  0.00000000
O        O    0.65858000  0.96715000  0.38760000  0.00000000
O        O    0.11240000  0.34142000  0.53285000  0.00000000
O        O    0.61240000  0.65858000  0.96715000  0.00000000
O        O    0.03285000  0.61240000  0.34142000  0.00000000
O        O    0.84142000  0.61240000  0.53285000  0.00000000
O        O    0.03285000  0.84142000  0.88760000  0.00000000
O        O    0.15858000  0.88760000  0.96715000  0.00000000
O        O    0.88760000  0.34142000  0.46715000  0.00000000
O        O    0.88760000  0.53285000  0.65858000  0.00000000
O        O    0.65858000  0.61240000  0.96715000  0.00000000
O        O    0.46715000  0.38760000  0.84142000  0.00000000
O        O    0.34142000  0.38760000  0.03285000  0.00000000
O        O    0.03285000  0.84142000  0.11240000  0.00000000
O        O    0.38760000  0.53285000  0.15858000  0.00000000
O        O    0.61240000  0.46715000  0.84142000  0.00000000
O        O    0.03285000  0.11240000  0.15858000  0.00000000
O        O    0.15858000  0.46715000  0.61240000  0.00000000
O        O    0.15858000  0.53285000  0.38760000  0.00000000
O        O    0.88760000  0.65858000  0.53285000  0.00000000
O        O    0.65858000  0.11240000  0.46715000  0.00000000
O        O    0.34142000  0.53285000  0.88760000  0.00000000
O        O    0.53285000  0.34142000  0.11240000  0.00000000
O        O    0.38760000  0.34142000  0.96715000  0.00000000
O        O    0.96715000  0.11240000  0.15858000  0.00000000
O        O    0.61240000  0.96715000  0.65858000  0.00000000
O        O    0.34142000  0.88760000  0.53285000  0.00000000
O        O    0.88760000  0.96715000  0.15858000  0.00000000
O        O    0.53285000  0.88760000  0.34142000  0.00000000
O        O    0.84142000  0.11240000  0.96715000  0.00000000
O        O    0.88760000  0.15858000  0.96715000  0.00000000
O        O    0.38760000  0.65858000  0.96715000  0.00000000
O        O    0.65858000  0.46715000  0.88760000  0.00000000
O        O    0.65858000  0.61240000  0.03285000  0.00000000
O        O    0.46715000  0.15858000  0.38760000  0.00000000
O        O    0.11240000  0.46715000  0.34142000  0.00000000
O        O    0.03285000  0.88760000  0.84142000  0.00000000
O        O    0.03285000  0.11240000  0.84142000  0.00000000
O        O    0.61240000  0.84142000  0.53285000  0.00000000
O        O    0.15858000  0.38760000  0.46715000  0.00000000
O        O    0.11240000  0.65858000  0.46715000  0.00000000
O        O    0.34142000  0.38760000  0.96715000  0.00000000
O        O    0.96715000  0.84142000  0.88760000  0.00000000
O        O    0.84142000  0.88760000  0.03285000  0.00000000
O        O    0.53285000  0.15858000  0.38760000  0.00000000
O        O    0.34142000  0.96715000  0.61240000  0.00000000
O        O    0.15858000  0.53285000  0.61240000  0.00000000
O        O    0.96715000  0.38760000  0.65858000  0.00000000
O        O    0.65858000  0.03285000  0.61240000  0.00000000
O        O    0.34142000  0.03285000  0.38760000  0.00000000
O        O    0.53285000  0.11240000  0.65858000  0.00000000
O        O    0.15858000  0.11240000  0.03285000  0.00000000
O        O    0.46715000  0.84142000  0.61240000  0.00000000
O        O    0.34142000  0.96715000  0.38760000  0.00000000
O        O    0.34142000  0.61240000  0.03285000  0.00000000
O        O    0.38760000  0.34142000  0.03285000  0.00000000
O        O    0.61240000  0.96715000  0.34142000  0.00000000
O        O    0.61240000  0.53285000  0.84142000  0.00000000
O        O    0.38760000  0.53285000  0.84142000  0.00000000
O        O    0.34142000  0.46715000  0.88760000  0.00000000
O        O    0.38760000  0.96715000  0.34142000  0.00000000
O        O    0.03285000  0.88760000  0.15858000  0.00000000
O        O    0.65858000  0.88760000  0.46715000  0.00000000
O        O    0.34142000  0.53285000  0.11240000  0.00000000
O        O    0.03285000  0.15858000  0.88760000  0.00000000
O        O    0.84142000  0.11240000  0.03285000  0.00000000
O        O    0.53285000  0.11240000  0.34142000  0.00000000
O        O    0.38760000  0.46715000  0.15858000  0.00000000
O        O    0.34142000  0.61240000  0.96715000  0.00000000
O        O    0.65858000  0.53285000  0.11240000  0.00000000
O        O    0.88760000  0.03285000  0.15858000  0.00000000
O        O    0.53285000  0.34142000  0.88760000  0.00000000
O        O    0.61240000  0.34142000  0.96715000  0.00000000
O        O    0.96715000  0.84142000  0.11240000  0.00000000
O        O    0.53285000  0.61240000  0.84142000  0.00000000
O        O    0.84142000  0.38760000  0.53285000  0.00000000
O        O    0.65858000  0.46715000  0.11240000  0.00000000
O        O    0.84142000  0.03285000  0.88760000  0.00000000
O        O    0.84142000  0.88760000  0.96715000  0.00000000
O        O    0.84142000  0.96715000  0.88760000  0.00000000
O        O    0.61240000  0.84142000  0.46715000  0.00000000
O        O    0.53285000  0.88760000  0.65858000  0.00000000
O        O    0.96715000  0.34142000  0.61240000  0.00000000
O        O    0.15858000  0.03285000  0.11240000  0.00000000
O        O    0.03285000  0.65858000  0.38760000  0.00000000
O        O    0.03285000  0.61240000  0.65858000  0.00000000
O        O    0.34142000  0.46715000  0.11240000  0.00000000
O        O    0.11240000  0.15858000  0.03285000  0.00000000
O        O    0.53285000  0.38760000  0.15858000  0.00000000
O        O    0.84142000  0.53285000  0.38760000  0.00000000
O        O    0.53285000  0.65858000  0.11240000  0.00000000
O        O    0.88760000  0.84142000  0.03285000  0.00000000
O        O    0.80487000  0.53261000  0.64855000  0.00000000
O        O    0.46739000  0.14855000  0.30487000  0.00000000
O        O    0.69513000  0.53261000  0.85145000  0.00000000
O        O    0.14855000  0.19513000  0.96739000  0.00000000
O        O    0.96739000  0.35145000  0.30487000  0.00000000
O        O    0.85145000  0.96739000  0.80487000  0.00000000
O        O    0.85145000  0.19513000  0.03261000  0.00000000
O        O    0.14855000  0.80487000  0.96739000  0.00000000
O        O    0.96739000  0.85145000  0.80487000  0.00000000
O        O    0.96739000  0.64855000  0.30487000  0.00000000
O        O    0.69513000  0.35145000  0.03261000  0.00000000
O        O    0.14855000  0.53261000  0.69513000  0.00000000
O        O    0.14855000  0.03261000  0.80487000  0.00000000
O        O    0.96739000  0.69513000  0.35145000  0.00000000
O        O    0.30487000  0.85145000  0.46739000  0.00000000
O        O    0.69513000  0.96739000  0.64855000  0.00000000
O        O    0.46739000  0.14855000  0.69513000  0.00000000
O        O    0.46739000  0.80487000  0.35145000  0.00000000
O        O    0.14855000  0.46739000  0.69513000  0.00000000
O        O    0.80487000  0.46739000  0.64855000  0.00000000
O        O    0.46739000  0.85145000  0.30487000  0.00000000
O        O    0.30487000  0.14855000  0.46739000  0.00000000
O        O    0.80487000  0.64855000  0.46739000  0.00000000
O        O    0.46739000  0.64855000  0.80487000  0.00000000
O        O    0.35145000  0.96739000  0.69513000  0.00000000
O        O    0.80487000  0.03261000  0.14855000  0.00000000
O        O    0.19513000  0.64855000  0.46739000  0.00000000
O        O    0.19513000  0.64855000  0.53261000  0.00000000
O        O    0.64855000  0.19513000  0.53261000  0.00000000
O        O    0.53261000  0.69513000  0.85145000  0.00000000
O        O    0.53261000  0.80487000  0.64855000  0.00000000
O        O    0.30487000  0.14855000  0.53261000  0.00000000
O        O    0.19513000  0.03261000  0.85145000  0.00000000
O        O    0.14855000  0.53261000  0.30487000  0.00000000
O        O    0.80487000  0.46739000  0.35145000  0.00000000
O        O    0.69513000  0.14855000  0.53261000  0.00000000
O        O    0.96739000  0.85145000  0.19513000  0.00000000
O        O    0.35145000  0.46739000  0.80487000  0.00000000
O        O    0.53261000  0.80487000  0.35145000  0.00000000
O        O    0.64855000  0.46739000  0.19513000  0.00000000
O        O    0.96739000  0.19513000  0.85145000  0.00000000
O        O    0.14855000  0.96739000  0.19513000  0.00000000
O        O    0.35145000  0.03261000  0.30487000  0.00000000
O        O    0.03261000  0.30487000  0.64855000  0.00000000
O        O    0.64855000  0.03261000  0.69513000  0.00000000
O        O    0.85145000  0.30487000  0.53261000  0.00000000
O        O    0.85145000  0.46739000  0.30487000  0.00000000
O        O    0.85145000  0.53261000  0.30487000  0.00000000
O        O    0.35145000  0.80487000  0.53261000  0.00000000
O        O    0.64855000  0.19513000  0.46739000  0.00000000
O        O    0.80487000  0.35145000  0.46739000  0.00000000
O        O    0.96739000  0.19513000  0.14855000  0.00000000
O        O    0.03261000  0.35145000  0.30487000  0.00000000
O        O    0.30487000  0.03261000  0.64855000  0.00000000
O        O    0.64855000  0.69513000  0.03261000  0.00000000
O        O    0.46739000  0.35145000  0.19513000  0.00000000
O        O    0.46739000  0.69513000  0.14855000  0.00000000
O        O    0.85145000  0.46739000  0.69513000  0.00000000
O        O    0.64855000  0.53261000  0.19513000  0.00000000
O        O    0.03261000  0.35145000  0.69513000  0.00000000
O        O    0.14855000  0.69513000  0.53261000  0.00000000
O        O    0.53261000  0.19513000  0.64855000  0.00000000
O        O    0.35145000  0.19513000  0.53261000  0.00000000
O        O    0.19513000  0.46739000  0.35145000  0.00000000
O        O    0.35145000  0.80487000  0.46739000  0.00000000
O        O    0.46739000  0.19513000  0.64855000  0.00000000
O        O    0.03261000  0.30487000  0.35145000  0.00000000
O        O    0.19513000  0.96739000  0.14855000  0.00000000
O        O    0.96739000  0.30487000  0.35145000  0.00000000
O        O    0.14855000  0.80487000  0.03261000  0.00000000
O        O    0.96739000  0.64855000  0.69513000  0.00000000
O        O    0.35145000  0.19513000  0.46739000  0.00000000
O        O    0.46739000  0.85145000  0.69513000  0.00000000
O        O    0.14855000  0.30487000  0.46739000  0.00000000
O        O    0.64855000  0.03261000  0.30487000  0.00000000
O        O    0.14855000  0.96739000  0.80487000  0.00000000
O        O    0.46739000  0.64855000  0.19513000  0.00000000
O        O    0.19513000  0.14855000  0.96739000  0.00000000
O        O    0.80487000  0.96739000  0.14855000  0.00000000
O        O    0.19513000  0.35145000  0.53261000  0.00000000
O        O    0.96739000  0.69513000  0.64855000  0.00000000
O        O    0.69513000  0.03261000  0.35145000  0.00000000
O        O    0.46739000  0.69513000  0.85145000  0.00000000
O        O    0.69513000  0.85145000  0.53261000  0.00000000
O        O    0.53261000  0.35145000  0.80487000  0.00000000
O        O    0.14855000  0.03261000  0.19513000  0.00000000
O        O    0.46739000  0.30487000  0.14855000  0.00000000
O        O    0.85145000  0.80487000  0.96739000  0.00000000
O        O    0.46739000  0.30487000  0.85145000  0.00000000
O        O    0.03261000  0.69513000  0.64855000  0.00000000
O        O    0.96739000  0.14855000  0.80487000  0.00000000
O        O    0.64855000  0.30487000  0.03261000  0.00000000
O        O    0.19513000  0.85145000  0.03261000  0.00000000
O        O    0.35145000  0.69513000  0.03261000  0.00000000
O        O    0.85145000  0.69513000  0.46739000  0.00000000
O        O    0.35145000  0.03261000  0.69513000  0.00000000
O        O    0.85145000  0.03261000  0.80487000  0.00000000
O        O    0.53261000  0.64855000  0.19513000  0.00000000
O        O    0.69513000  0.35145000  0.96739000  0.00000000
O        O    0.19513000  0.96739000  0.85145000  0.00000000
O        O    0.03261000  0.19513000  0.14855000  0.00000000
O        O    0.69513000  0.96739000  0.35145000  0.00000000
O        O    0.14855000  0.30487000  0.53261000  0.00000000
O        O    0.64855000  0.69513000  0.96739000  0.00000000
O        O    0.03261000  0.64855000  0.30487000  0.00000000
O        O    0.80487000  0.64855000  0.53261000  0.00000000
O        O    0.03261000  0.80487000  0.85145000  0.00000000
O        O    0.19513000  0.85145000  0.96739000  0.00000000
O        O    0.85145000  0.30487000  0.46739000  0.00000000
O        O    0.85145000  0.53261000  0.69513000  0.00000000
O        O    0.69513000  0.64855000  0.96739000  0.00000000
O        O    0.46739000  0.35145000  0.80487000  0.00000000
O        O    0.30487000  0.35145000  0.03261000  0.00000000
O        O    0.03261000  0.80487000  0.14855000  0.00000000
O        O    0.35145000  0.53261000  0.19513000  0.00000000
O        O    0.64855000  0.46739000  0.80487000  0.00000000
O        O    0.03261000  0.14855000  0.19513000  0.00000000
O        O    0.19513000  0.46739000  0.64855000  0.00000000
O        O    0.19513000  0.53261000  0.35145000  0.00000000
O        O    0.85145000  0.69513000  0.53261000  0.00000000
O        O    0.69513000  0.14855000  0.46739000  0.00000000
O        O    0.30487000  0.53261000  0.85145000  0.00000000
O        O    0.53261000  0.30487000  0.14855000  0.00000000
O        O    0.35145000  0.30487000  0.96739000  0.00000000
O        O    0.96739000  0.14855000  0.19513000  0.00000000
O        O    0.64855000  0.96739000  0.69513000  0.00000000
O        O    0.30487000  0.85145000  0.53261000  0.00000000
O        O    0.85145000  0.96739000  0.19513000  0.00000000
O        O    0.53261000  0.85145000  0.30487000  0.00000000
O        O    0.80487000  0.14855000  0.96739000  0.00000000
O        O    0.85145000  0.19513000  0.96739000  0.00000000
O        O    0.35145000  0.69513000  0.96739000  0.00000000
O        O    0.69513000  0.46739000  0.85145000  0.00000000
O        O    0.69513000  0.64855000  0.03261000  0.00000000
O        O    0.46739000  0.19513000  0.35145000  0.00000000
O        O    0.14855000  0.46739000  0.30487000  0.00000000
O        O    0.03261000  0.85145000  0.80487000  0.00000000
O        O    0.03261000  0.14855000  0.80487000  0.00000000
O        O    0.64855000  0.80487000  0.53261000  0.00000000
O        O    0.19513000  0.35145000  0.46739000  0.00000000
O        O    0.14855000  0.69513000  0.46739000  0.00000000
O        O    0.30487000  0.35145000  0.96739000  0.00000000
O        O    0.96739000  0.80487000  0.85145000  0.00000000
O        O    0.80487000  0.85145000  0.03261000  0.00000000
O        O    0.53261000  0.19513000  0.35145000  0.00000000
O        O    0.30487000  0.96739000  0.64855000  0.00000000
O        O    0.19513000  0.53261000  0.64855000  0.00000000
O        O    0.96739000  0.35145000  0.69513000  0.00000000
O        O    0.69513000  0.03261000  0.64855000  0.00000000
O        O    0.30487000  0.03261000  0.35145000  0.00000000
O        O    0.53261000  0.14855000  0.69513000  0.00000000
O        O    0.19513000  0.14855000  0.03261000  0.00000000
O        O    0.46739000  0.80487000  0.64855000  0.00000000
O        O    0.30487000  0.96739000  0.35145000  0.00000000
O        O    0.30487000  0.64855000  0.03261000  0.00000000
O        O    0.35145000  0.30487000  0.03261000  0.00000000
O        O    0.64855000  0.96739000  0.30487000  0.00000000
O        O    0.64855000  0.53261000  0.80487000  0.00000000
O        O    0.35145000  0.53261000  0.80487000  0.00000000
O        O    0.30487000  0.46739000  0.85145000  0.00000000
O        O    0.35145000  0.96739000  0.30487000  0.00000000
O        O    0.03261000  0.85145000  0.19513000  0.00000000
O        O    0.69513000  0.85145000  0.46739000  0.00000000
O        O    0.30487000  0.53261000  0.14855000  0.00000000
O        O    0.03261000  0.19513000  0.85145000  0.00000000
O        O    0.80487000  0.14855000  0.03261000  0.00000000
O        O    0.53261000  0.14855000  0.30487000  0.00000000
O        O    0.35145000  0.46739000  0.19513000  0.00000000
O        O    0.30487000  0.64855000  0.96739000  0.00000000
O        O    0.69513000  0.53261000  0.14855000  0.00000000
O        O    0.85145000  0.03261000  0.19513000  0.00000000
O        O    0.53261000  0.30487000  0.85145000  0.00000000
O        O    0.64855000  0.30487000  0.96739000  0.00000000
O        O    0.96739000  0.80487000  0.14855000  0.00000000
O        O    0.53261000  0.64855000  0.80487000  0.00000000
O        O    0.80487000  0.35145000  0.53261000  0.00000000
O        O    0.69513000  0.46739000  0.14855000  0.00000000
O        O    0.80487000  0.03261000  0.85145000  0.00000000
O        O    0.80487000  0.85145000  0.96739000  0.00000000
O        O    0.80487000  0.96739000  0.85145000  0.00000000
O        O    0.64855000  0.80487000  0.46739000  0.00000000
O        O    0.53261000  0.85145000  0.69513000  0.00000000
O        O    0.96739000  0.30487000  0.64855000  0.00000000
O        O    0.19513000  0.03261000  0.14855000  0.00000000
O        O    0.03261000  0.69513000  0.35145000  0.00000000
O        O    0.03261000  0.64855000  0.69513000  0.00000000
O        O    0.30487000  0.46739000  0.14855000  0.00000000
O        O    0.14855000  0.19513000  0.03261000  0.00000000
O        O    0.53261000  0.35145000  0.19513000  0.00000000
O        O    0.80487000  0.53261000  0.35145000  0.00000000
O        O    0.53261000  0.69513000  0.14855000  0.00000000
O        O    0.85145000  0.80487000  0.03261000  0.00000000
C        C    0.81665000  0.54303000  0.62395000  0.00000000
C        C    0.45697000  0.12395000  0.31665000  0.00000000
C        C    0.68335000  0.54303000  0.87605000  0.00000000
C        C    0.12395000  0.18335000  0.95697000  0.00000000
C        C    0.95697000  0.37605000  0.31665000  0.00000000
C        C    0.87605000  0.95697000  0.81665000  0.00000000
C        C    0.87605000  0.18335000  0.04303000  0.00000000
C        C    0.12395000  0.81665000  0.95697000  0.00000000
C        C    0.95697000  0.87605000  0.81665000  0.00000000
C        C    0.95697000  0.62395000  0.31665000  0.00000000
C        C    0.68335000  0.37605000  0.04303000  0.00000000
C        C    0.12395000  0.54303000  0.68335000  0.00000000
C        C    0.12395000  0.04303000  0.81665000  0.00000000
C        C    0.95697000  0.68335000  0.37605000  0.00000000
C        C    0.31665000  0.87605000  0.45697000  0.00000000
C        C    0.68335000  0.95697000  0.62395000  0.00000000
C        C    0.45697000  0.12395000  0.68335000  0.00000000
C        C    0.45697000  0.81665000  0.37605000  0.00000000
C        C    0.12395000  0.45697000  0.68335000  0.00000000
C        C    0.81665000  0.45697000  0.62395000  0.00000000
C        C    0.45697000  0.87605000  0.31665000  0.00000000
C        C    0.31665000  0.12395000  0.45697000  0.00000000
C        C    0.81665000  0.62395000  0.45697000  0.00000000
C        C    0.45697000  0.62395000  0.81665000  0.00000000
C        C    0.37605000  0.95697000  0.68335000  0.00000000
C        C    0.81665000  0.04303000  0.12395000  0.00000000
C        C    0.18335000  0.62395000  0.45697000  0.00000000
C        C    0.18335000  0.62395000  0.54303000  0.00000000
C        C    0.62395000  0.18335000  0.54303000  0.00000000
C        C    0.54303000  0.68335000  0.87605000  0.00000000
C        C    0.54303000  0.81665000  0.62395000  0.00000000
C        C    0.31665000  0.12395000  0.54303000  0.00000000
C        C    0.18335000  0.04303000  0.87605000  0.00000000
C        C    0.12395000  0.54303000  0.31665000  0.00000000
C        C    0.81665000  0.45697000  0.37605000  0.00000000
C        C    0.68335000  0.12395000  0.54303000  0.00000000
C        C    0.95697000  0.87605000  0.18335000  0.00000000
C        C    0.37605000  0.45697000  0.81665000  0.00000000
C        C    0.54303000  0.81665000  0.37605000  0.00000000
C        C    0.62395000  0.45697000  0.18335000  0.00000000
C        C    0.95697000  0.18335000  0.87605000  0.00000000
C        C    0.12395000  0.95697000  0.18335000  0.00000000
C        C    0.37605000  0.04303000  0.31665000  0.00000000
C        C    0.04303000  0.31665000  0.62395000  0.00000000
C        C    0.62395000  0.04303000  0.68335000  0.00000000
C        C    0.87605000  0.31665000  0.54303000  0.00000000
C        C    0.87605000  0.45697000  0.31665000  0.00000000
C        C    0.87605000  0.54303000  0.31665000  0.00000000
C        C    0.37605000  0.81665000  0.54303000  0.00000000
C        C    0.62395000  0.18335000  0.45697000  0.00000000
C        C    0.81665000  0.37605000  0.45697000  0.00000000
C        C    0.95697000  0.18335000  0.12395000  0.00000000
C        C    0.04303000  0.37605000  0.31665000  0.00000000
C        C    0.31665000  0.04303000  0.62395000  0.00000000
C        C    0.62395000  0.68335000  0.04303000  0.00000000
C        C    0.45697000  0.37605000  0.18335000  0.00000000
C        C    0.45697000  0.68335000  0.12395000  0.00000000
C        C    0.87605000  0.45697000  0.68335000  0.00000000
C        C    0.62395000  0.54303000  0.18335000  0.00000000
C        C    0.04303000  0.37605000  0.68335000  0.00000000
C        C    0.12395000  0.68335000  0.54303000  0.00000000
C        C    0.54303000  0.18335000  0.62395000  0.00000000
C        C    0.37605000  0.18335000  0.54303000  0.00000000
C        C    0.18335000  0.45697000  0.37605000  0.00000000
C        C    0.37605000  0.81665000  0.45697000  0.00000000
C        C    0.45697000  0.18335000  0.62395000  0.00000000
C        C    0.04303000  0.31665000  0.37605000  0.00000000
C        C    0.18335000  0.95697000  0.12395000  0.00000000
C        C    0.95697000  0.31665000  0.37605000  0.00000000
C        C    0.12395000  0.81665000  0.04303000  0.00000000
C        C    0.95697000  0.62395000  0.68335000  0.00000000
C        C    0.37605000  0.18335000  0.45697000  0.00000000
C        C    0.45697000  0.87605000  0.68335000  0.00000000
C        C    0.12395000  0.31665000  0.45697000  0.00000000
C        C    0.62395000  0.04303000  0.31665000  0.00000000
C        C    0.12395000  0.95697000  0.81665000  0.00000000
C        C    0.45697000  0.62395000  0.18335000  0.00000000
C        C    0.18335000  0.12395000  0.95697000  0.00000000
C        C    0.81665000  0.95697000  0.12395000  0.00000000
C        C    0.18335000  0.37605000  0.54303000  0.00000000
C        C    0.95697000  0.68335000  0.62395000  0.00000000
C        C    0.68335000  0.04303000  0.37605000  0.00000000
C        C    0.45697000  0.68335000  0.87605000  0.00000000
C        C    0.68335000  0.87605000  0.54303000  0.00000000
C        C    0.54303000  0.37605000  0.81665000  0.00000000
C        C    0.12395000  0.04303000  0.18335000  0.00000000
C        C    0.45697000  0.31665000  0.12395000  0.00000000
C        C    0.87605000  0.81665000  0.95697000  0.00000000
C        C    0.45697000  0.31665000  0.87605000  0.00000000
C        C    0.04303000  0.68335000  0.62395000  0.00000000
C        C    0.95697000  0.12395000  0.81665000  0.00000000
C        C    0.62395000  0.31665000  0.04303000  0.00000000
C        C    0.18335000  0.87605000  0.04303000  0.00000000
C        C    0.37605000  0.68335000  0.04303000  0.00000000
C        C    0.87605000  0.68335000  0.45697000  0.00000000
C        C    0.37605000  0.04303000  0.68335000  0.00000000
C        C    0.87605000  0.04303000  0.81665000  0.00000000
C        C    0.54303000  0.62395000  0.18335000  0.00000000
C        C    0.68335000  0.37605000  0.95697000  0.00000000
C        C    0.18335000  0.95697000  0.87605000  0.00000000
C        C    0.04303000  0.18335000  0.12395000  0.00000000
C        C    0.68335000  0.95697000  0.37605000  0.00000000
C        C    0.12395000  0.31665000  0.54303000  0.00000000
C        C    0.62395000  0.68335000  0.95697000  0.00000000
C        C    0.04303000  0.62395000  0.31665000  0.00000000
C        C    0.81665000  0.62395000  0.54303000  0.00000000
C        C    0.04303000  0.81665000  0.87605000  0.00000000
C        C    0.18335000  0.87605000  0.95697000  0.00000000
C        C    0.87605000  0.31665000  0.45697000  0.00000000
C        C    0.87605000  0.54303000  0.68335000  0.00000000
C        C    0.68335000  0.62395000  0.95697000  0.00000000
C        C    0.45697000  0.37605000  0.81665000  0.00000000
C        C    0.31665000  0.37605000  0.04303000  0.00000000
C        C    0.04303000  0.81665000  0.12395000  0.00000000
C        C    0.37605000  0.54303000  0.18335000  0.00000000
C        C    0.62395000  0.45697000  0.81665000  0.00000000
C        C    0.04303000  0.12395000  0.18335000  0.00000000
C        C    0.18335000  0.45697000  0.62395000  0.00000000
C        C    0.18335000  0.54303000  0.37605000  0.00000000
C        C    0.87605000  0.68335000  0.54303000  0.00000000
C        C    0.68335000  0.12395000  0.45697000  0.00000000
C        C    0.31665000  0.54303000  0.87605000  0.00000000
C        C    0.54303000  0.31665000  0.12395000  0.00000000
C        C    0.37605000  0.31665000  0.95697000  0.00000000
C        C    0.95697000  0.12395000  0.18335000  0.00000000
C        C    0.62395000  0.95697000  0.68335000  0.00000000
C        C    0.31665000  0.87605000  0.54303000  0.00000000
C        C    0.87605000  0.95697000  0.18335000  0.00000000
C        C    0.54303000  0.87605000  0.31665000  0.00000000
C        C    0.81665000  0.12395000  0.95697000  0.00000000
C        C    0.87605000  0.18335000  0.95697000  0.00000000
C        C    0.37605000  0.68335000  0.95697000  0.00000000
C        C    0.68335000  0.45697000  0.87605000  0.00000000
C        C    0.68335000  0.62395000  0.04303000  0.00000000
C        C    0.45697000  0.18335000  0.37605000  0.00000000
C        C    0.12395000  0.45697000  0.31665000  0.00000000
C        C    0.04303000  0.87605000  0.81665000  0.00000000
C        C    0.04303000  0.12395000  0.81665000  0.00000000
C        C    0.62395000  0.81665000  0.54303000  0.00000000
C        C    0.18335000  0.37605000  0.45697000  0.00000000
C        C    0.12395000  0.68335000  0.45697000  0.00000000
C        C    0.31665000  0.37605000  0.95697000  0.00000000
C        C    0.95697000  0.81665000  0.87605000  0.00000000
C        C    0.81665000  0.87605000  0.04303000  0.00000000
C        C    0.54303000  0.18335000  0.37605000  0.00000000
C        C    0.31665000  0.95697000  0.62395000  0.00000000
C        C    0.18335000  0.54303000  0.62395000  0.00000000
C        C    0.95697000  0.37605000  0.68335000  0.00000000
C        C    0.68335000  0.04303000  0.62395000  0.00000000
C        C    0.31665000  0.04303000  0.37605000  0.00000000
C        C    0.54303000  0.12395000  0.68335000  0.00000000
C        C    0.18335000  0.12395000  0.04303000  0.00000000
C        C    0.45697000  0.81665000  0.62395000  0.00000000
C        C    0.31665000  0.95697000  0.37605000  0.00000000
C        C    0.31665000  0.62395000  0.04303000  0.00000000
C        C    0.37605000  0.31665000  0.04303000  0.00000000
C        C    0.62395000  0.95697000  0.31665000  0.00000000
C        C    0.62395000  0.54303000  0.81665000  0.00000000
C        C    0.37605000  0.54303000  0.81665000  0.00000000
C        C    0.31665000  0.45697000  0.87605000  0.00000000
C        C    0.37605000  0.95697000  0.31665000  0.00000000
C        C    0.04303000  0.87605000  0.18335000  0.00000000
C        C    0.68335000  0.87605000  0.45697000  0.00000000
C        C    0.31665000  0.54303000  0.12395000  0.00000000
C        C    0.04303000  0.18335000  0.87605000  0.00000000
C        C    0.81665000  0.12395000  0.04303000  0.00000000
C        C    0.54303000  0.12395000  0.31665000  0.00000000
C        C    0.37605000  0.45697000  0.18335000  0.00000000
C        C    0.31665000  0.62395000  0.95697000  0.00000000
C        C    0.68335000  0.54303000  0.12395000  0.00000000
C        C    0.87605000  0.04303000  0.18335000  0.00000000
C        C    0.54303000  0.31665000  0.87605000  0.00000000
C        C    0.62395000  0.31665000  0.95697000  0.00000000
C        C    0.95697000  0.81665000  0.12395000  0.00000000
C        C    0.54303000  0.62395000  0.81665000  0.00000000
C        C    0.81665000  0.37605000  0.54303000  0.00000000
C        C    0.68335000  0.45697000  0.12395000  0.00000000
C        C    0.81665000  0.04303000  0.87605000  0.00000000
C        C    0.81665000  0.87605000  0.95697000  0.00000000
C        C    0.81665000  0.95697000  0.87605000  0.00000000
C        C    0.62395000  0.81665000  0.45697000  0.00000000
C        C    0.54303000  0.87605000  0.68335000  0.00000000
C        C    0.95697000  0.31665000  0.62395000  0.00000000
C        C    0.18335000  0.04303000  0.12395000  0.00000000
C        C    0.04303000  0.68335000  0.37605000  0.00000000
C        C    0.04303000  0.62395000  0.68335000  0.00000000
C        C    0.31665000  0.45697000  0.12395000  0.00000000
C        C    0.12395000  0.18335000  0.04303000  0.00000000
C        C    0.54303000  0.37605000  0.18335000  0.00000000
C        C    0.81665000  0.54303000  0.37605000  0.00000000
C        C    0.54303000  0.68335000  0.12395000  0.00000000
C        C    0.87605000  0.81665000  0.04303000  0.00000000
C        C    0.91797000  0.91797000  0.81546000  0.00000000
C        C    0.41797000  0.08203000  0.31546000  0.00000000
C        C    0.91797000  0.41797000  0.31546000  0.00000000
C        C    0.91797000  0.58203000  0.31546000  0.00000000
C        C    0.81546000  0.41797000  0.41797000  0.00000000
C        C    0.91797000  0.18454000  0.08203000  0.00000000
C        C    0.31546000  0.08203000  0.58203000  0.00000000
C        C    0.08203000  0.41797000  0.68454000  0.00000000
C        C    0.58203000  0.18454000  0.58203000  0.00000000
C        C    0.41797000  0.81546000  0.41797000  0.00000000
C        C    0.41797000  0.18454000  0.58203000  0.00000000
C        C    0.41797000  0.91797000  0.68454000  0.00000000
C        C    0.08203000  0.31546000  0.41797000  0.00000000
C        C    0.18454000  0.08203000  0.91797000  0.00000000
C        C    0.68454000  0.91797000  0.58203000  0.00000000
C        C    0.08203000  0.68454000  0.58203000  0.00000000
C        C    0.18454000  0.91797000  0.08203000  0.00000000
C        C    0.41797000  0.68454000  0.08203000  0.00000000
C        C    0.91797000  0.68454000  0.41797000  0.00000000
C        C    0.41797000  0.08203000  0.68454000  0.00000000
C        C    0.91797000  0.08203000  0.81546000  0.00000000
C        C    0.58203000  0.58203000  0.18454000  0.00000000
C        C    0.08203000  0.31546000  0.58203000  0.00000000
C        C    0.58203000  0.68454000  0.91797000  0.00000000
C        C    0.08203000  0.58203000  0.31546000  0.00000000
C        C    0.81546000  0.58203000  0.58203000  0.00000000
C        C    0.08203000  0.81546000  0.91797000  0.00000000
C        C    0.18454000  0.91797000  0.91797000  0.00000000
C        C    0.91797000  0.31546000  0.41797000  0.00000000
C        C    0.91797000  0.58203000  0.68454000  0.00000000
C        C    0.68454000  0.58203000  0.91797000  0.00000000
C        C    0.41797000  0.41797000  0.81546000  0.00000000
C        C    0.08203000  0.81546000  0.08203000  0.00000000
C        C    0.41797000  0.58203000  0.18454000  0.00000000
C        C    0.58203000  0.41797000  0.81546000  0.00000000
C        C    0.08203000  0.08203000  0.18454000  0.00000000
C        C    0.18454000  0.41797000  0.58203000  0.00000000
C        C    0.18454000  0.58203000  0.41797000  0.00000000
C        C    0.91797000  0.68454000  0.58203000  0.00000000
C        C    0.68454000  0.08203000  0.41797000  0.00000000
C        C    0.58203000  0.31546000  0.08203000  0.00000000
C        C    0.41797000  0.31546000  0.91797000  0.00000000
C        C    0.91797000  0.91797000  0.18454000  0.00000000
C        C    0.91797000  0.18454000  0.91797000  0.00000000
C        C    0.41797000  0.68454000  0.91797000  0.00000000
C        C    0.68454000  0.41797000  0.91797000  0.00000000
C        C    0.41797000  0.18454000  0.41797000  0.00000000
C        C    0.08203000  0.41797000  0.31546000  0.00000000
C        C    0.08203000  0.91797000  0.81546000  0.00000000
C        C    0.08203000  0.08203000  0.81546000  0.00000000
C        C    0.58203000  0.81546000  0.58203000  0.00000000
C        C    0.18454000  0.41797000  0.41797000  0.00000000
C        C    0.91797000  0.81546000  0.91797000  0.00000000
C        C    0.81546000  0.91797000  0.08203000  0.00000000
C        C    0.58203000  0.18454000  0.41797000  0.00000000
C        C    0.31546000  0.91797000  0.58203000  0.00000000
C        C    0.18454000  0.58203000  0.58203000  0.00000000
C        C    0.91797000  0.41797000  0.68454000  0.00000000
C        C    0.68454000  0.08203000  0.58203000  0.00000000
C        C    0.31546000  0.08203000  0.41797000  0.00000000
C        C    0.58203000  0.08203000  0.68454000  0.00000000
C        C    0.41797000  0.81546000  0.58203000  0.00000000
C        C    0.31546000  0.91797000  0.41797000  0.00000000
C        C    0.41797000  0.31546000  0.08203000  0.00000000
C        C    0.58203000  0.91797000  0.31546000  0.00000000
C        C    0.41797000  0.58203000  0.81546000  0.00000000
C        C    0.31546000  0.41797000  0.91797000  0.00000000
C        C    0.41797000  0.91797000  0.31546000  0.00000000
C        C    0.08203000  0.91797000  0.18454000  0.00000000
C        C    0.68454000  0.91797000  0.41797000  0.00000000
C        C    0.31546000  0.58203000  0.08203000  0.00000000
C        C    0.08203000  0.18454000  0.91797000  0.00000000
C        C    0.81546000  0.08203000  0.08203000  0.00000000
C        C    0.58203000  0.08203000  0.31546000  0.00000000
C        C    0.41797000  0.41797000  0.18454000  0.00000000
C        C    0.31546000  0.58203000  0.91797000  0.00000000
C        C    0.68454000  0.58203000  0.08203000  0.00000000
C        C    0.91797000  0.08203000  0.18454000  0.00000000
C        C    0.58203000  0.31546000  0.91797000  0.00000000
C        C    0.58203000  0.58203000  0.81546000  0.00000000
C        C    0.81546000  0.41797000  0.58203000  0.00000000
C        C    0.68454000  0.41797000  0.08203000  0.00000000
C        C    0.81546000  0.08203000  0.91797000  0.00000000
C        C    0.81546000  0.91797000  0.91797000  0.00000000
C        C    0.58203000  0.81546000  0.41797000  0.00000000
C        C    0.58203000  0.91797000  0.68454000  0.00000000
C        C    0.91797000  0.31546000  0.58203000  0.00000000
C        C    0.18454000  0.08203000  0.08203000  0.00000000
C        C    0.08203000  0.68454000  0.41797000  0.00000000
C        C    0.08203000  0.58203000  0.68454000  0.00000000
C        C    0.31546000  0.41797000  0.08203000  0.00000000
C        C    0.08203000  0.18454000  0.08203000  0.00000000
C        C    0.58203000  0.41797000  0.18454000  0.00000000
C        C    0.81546000  0.58203000  0.41797000  0.00000000
C        C    0.58203000  0.68454000  0.08203000  0.00000000
C        C    0.91797000  0.81546000  0.08203000  0.00000000
H        H    0.92600000  0.92600000  0.83450000  0.00000000
H        H    0.42600000  0.07400000  0.33450000  0.00000000
H        H    0.92600000  0.42600000  0.33450000  0.00000000
H        H    0.92600000  0.57400000  0.33450000  0.00000000
H        H    0.83450000  0.42600000  0.42600000  0.00000000
H        H    0.92600000  0.16550000  0.07400000  0.00000000
H        H    0.33450000  0.07400000  0.57400000  0.00000000
H        H    0.07400000  0.42600000  0.66550000  0.00000000
H        H    0.57400000  0.16550000  0.57400000  0.00000000
H        H    0.42600000  0.83450000  0.42600000  0.00000000
H        H    0.42600000  0.16550000  0.57400000  0.00000000
H        H    0.42600000  0.92600000  0.66550000  0.00000000
H        H    0.07400000  0.33450000  0.42600000  0.00000000
H        H    0.16550000  0.07400000  0.92600000  0.00000000
H        H    0.66550000  0.92600000  0.57400000  0.00000000
H        H    0.07400000  0.66550000  0.57400000  0.00000000
H        H    0.16550000  0.92600000  0.07400000  0.00000000
H        H    0.42600000  0.66550000  0.07400000  0.00000000
H        H    0.92600000  0.66550000  0.42600000  0.00000000
H        H    0.42600000  0.07400000  0.66550000  0.00000000
H        H    0.92600000  0.07400000  0.83450000  0.00000000
H        H    0.57400000  0.57400000  0.16550000  0.00000000
H        H    0.07400000  0.33450000  0.57400000  0.00000000
H        H    0.57400000  0.66550000  0.92600000  0.00000000
H        H    0.07400000  0.57400000  0.33450000  0.00000000
H        H    0.83450000  0.57400000  0.57400000  0.00000000
H        H    0.07400000  0.83450000  0.92600000  0.00000000
H        H    0.16550000  0.92600000  0.92600000  0.00000000
H        H    0.92600000  0.33450000  0.42600000  0.00000000
H        H    0.92600000  0.57400000  0.66550000  0.00000000
H        H    0.66550000  0.57400000  0.92600000  0.00000000
H        H    0.42600000  0.42600000  0.83450000  0.00000000
H        H    0.07400000  0.83450000  0.07400000  0.00000000
H        H    0.42600000  0.57400000  0.16550000  0.00000000
H        H    0.57400000  0.42600000  0.83450000  0.00000000
H        H    0.07400000  0.07400000  0.16550000  0.00000000
H        H    0.16550000  0.42600000  0.57400000  0.00000000
H        H    0.16550000  0.57400000  0.42600000  0.00000000
H        H    0.92600000  0.66550000  0.57400000  0.00000000
H        H    0.66550000  0.07400000  0.42600000  0.00000000
H        H    0.57400000  0.33450000  0.07400000  0.00000000
H        H    0.42600000  0.33450000  0.92600000  0.00000000
H        H    0.92600000  0.92600000  0.16550000  0.00000000
H        H    0.92600000  0.16550000  0.92600000  0.00000000
H        H    0.42600000  0.66550000  0.92600000  0.00000000
H        H    0.66550000  0.42600000  0.92600000  0.00000000
H        H    0.42600000  0.16550000  0.42600000  0.00000000
H        H    0.07400000  0.42600000  0.33450000  0.00000000
H        H    0.07400000  0.92600000  0.83450000  0.00000000
H        H    0.07400000  0.07400000  0.83450000  0.00000000
H        H    0.57400000  0.83450000  0.57400000  0.00000000
H        H    0.16550000  0.42600000  0.42600000  0.00000000
H        H    0.92600000  0.83450000  0.92600000  0.00000000
H        H    0.83450000  0.92600000  0.07400000  0.00000000
H        H    0.57400000  0.16550000  0.42600000  0.00000000
H        H    0.33450000  0.92600000  0.57400000  0.00000000
H        H    0.16550000  0.57400000  0.57400000  0.00000000
H        H    0.92600000  0.42600000  0.66550000  0.00000000
H        H    0.66550000  0.07400000  0.57400000  0.00000000
H        H    0.33450000  0.07400000  0.42600000  0.00000000
H        H    0.57400000  0.07400000  0.66550000  0.00000000
H        H    0.42600000  0.83450000  0.57400000  0.00000000
H        H    0.33450000  0.92600000  0.42600000  0.00000000
H        H    0.42600000  0.33450000  0.07400000  0.00000000
H        H    0.57400000  0.92600000  0.33450000  0.00000000
H        H    0.42600000  0.57400000  0.83450000  0.00000000
H        H    0.33450000  0.42600000  0.92600000  0.00000000
H        H    0.42600000  0.92600000  0.33450000  0.00000000
H        H    0.07400000  0.92600000  0.16550000  0.00000000
H        H    0.66550000  0.92600000  0.42600000  0.00000000
H        H    0.33450000  0.57400000  0.07400000  0.00000000
H        H    0.07400000  0.16550000  0.92600000  0.00000000
H        H    0.83450000  0.07400000  0.07400000  0.00000000
H        H    0.57400000  0.07400000  0.33450000  0.00000000
H        H    0.42600000  0.42600000  0.16550000  0.00000000
H        H    0.33450000  0.57400000  0.92600000  0.00000000
H        H    0.66550000  0.57400000  0.07400000  0.00000000
H        H    0.92600000  0.07400000  0.16550000  0.00000000
H        H    0.57400000  0.33450000  0.92600000  0.00000000
H        H    0.57400000  0.57400000  0.83450000  0.00000000
H        H    0.83450000  0.42600000  0.57400000  0.00000000
H        H    0.66550000  0.42600000  0.07400000  0.00000000
H        H    0.83450000  0.07400000  0.92600000  0.00000000
H        H    0.83450000  0.92600000  0.92600000  0.00000000
H        H    0.57400000  0.83450000  0.42600000  0.00000000
H        H    0.57400000  0.92600000  0.66550000  0.00000000
H        H    0.92600000  0.33450000  0.57400000  0.00000000
H        H    0.16550000  0.07400000  0.07400000  0.00000000
H        H    0.07400000  0.66550000  0.42600000  0.00000000
H        H    0.07400000  0.57400000  0.66550000  0.00000000
H        H    0.33450000  0.42600000  0.07400000  0.00000000
H        H    0.07400000  0.16550000  0.07400000  0.00000000
H        H    0.57400000  0.42600000  0.16550000  0.00000000
H        H    0.83450000  0.57400000  0.42600000  0.00000000
H        H    0.57400000  0.66550000  0.07400000  0.00000000
H        H    0.92600000  0.83450000  0.07400000  0.00000000
C        C    0.80109000  0.56856000  0.60769000  0.00000000
C        C    0.43144000  0.10769000  0.30109000  0.00000000
C        C    0.69891000  0.56856000  0.89231000  0.00000000
C        C    0.10769000  0.19891000  0.93144000  0.00000000
C        C    0.93144000  0.39231000  0.30109000  0.00000000
C        C    0.89231000  0.93144000  0.80109000  0.00000000
C        C    0.89231000  0.19891000  0.06856000  0.00000000
C        C    0.10769000  0.80109000  0.93144000  0.00000000
C        C    0.93144000  0.89231000  0.80109000  0.00000000
C        C    0.93144000  0.60769000  0.30109000  0.00000000
C        C    0.69891000  0.39231000  0.06856000  0.00000000
C        C    0.10769000  0.56856000  0.69891000  0.00000000
C        C    0.10769000  0.06856000  0.80109000  0.00000000
C        C    0.93144000  0.69891000  0.39231000  0.00000000
C        C    0.30109000  0.89231000  0.43144000  0.00000000
C        C    0.69891000  0.93144000  0.60769000  0.00000000
C        C    0.43144000  0.10769000  0.69891000  0.00000000
C        C    0.43144000  0.80109000  0.39231000  0.00000000
C        C    0.10769000  0.43144000  0.69891000  0.00000000
C        C    0.80109000  0.43144000  0.60769000  0.00000000
C        C    0.43144000  0.89231000  0.30109000  0.00000000
C        C    0.30109000  0.10769000  0.43144000  0.00000000
C        C    0.80109000  0.60769000  0.43144000  0.00000000
C        C    0.43144000  0.60769000  0.80109000  0.00000000
C        C    0.39231000  0.93144000  0.69891000  0.00000000
C        C    0.80109000  0.06856000  0.10769000  0.00000000
C        C    0.19891000  0.60769000  0.43144000  0.00000000
C        C    0.19891000  0.60769000  0.56856000  0.00000000
C        C    0.60769000  0.19891000  0.56856000  0.00000000
C        C    0.56856000  0.69891000  0.89231000  0.00000000
C        C    0.56856000  0.80109000  0.60769000  0.00000000
C        C    0.30109000  0.10769000  0.56856000  0.00000000
C        C    0.19891000  0.06856000  0.89231000  0.00000000
C        C    0.10769000  0.56856000  0.30109000  0.00000000
C        C    0.80109000  0.43144000  0.39231000  0.00000000
C        C    0.69891000  0.10769000  0.56856000  0.00000000
C        C    0.93144000  0.89231000  0.19891000  0.00000000
C        C    0.39231000  0.43144000  0.80109000  0.00000000
C        C    0.56856000  0.80109000  0.39231000  0.00000000
C        C    0.60769000  0.43144000  0.19891000  0.00000000
C        C    0.93144000  0.19891000  0.89231000  0.00000000
C        C    0.10769000  0.93144000  0.19891000  0.00000000
C        C    0.39231000  0.06856000  0.30109000  0.00000000
C        C    0.06856000  0.30109000  0.60769000  0.00000000
C        C    0.60769000  0.06856000  0.69891000  0.00000000
C        C    0.89231000  0.30109000  0.56856000  0.00000000
C        C    0.89231000  0.43144000  0.30109000  0.00000000
C        C    0.89231000  0.56856000  0.30109000  0.00000000
C        C    0.39231000  0.80109000  0.56856000  0.00000000
C        C    0.60769000  0.19891000  0.43144000  0.00000000
C        C    0.80109000  0.39231000  0.43144000  0.00000000
C        C    0.93144000  0.19891000  0.10769000  0.00000000
C        C    0.06856000  0.39231000  0.30109000  0.00000000
C        C    0.30109000  0.06856000  0.60769000  0.00000000
C        C    0.60769000  0.69891000  0.06856000  0.00000000
C        C    0.43144000  0.39231000  0.19891000  0.00000000
C        C    0.43144000  0.69891000  0.10769000  0.00000000
C        C    0.89231000  0.43144000  0.69891000  0.00000000
C        C    0.60769000  0.56856000  0.19891000  0.00000000
C        C    0.06856000  0.39231000  0.69891000  0.00000000
C        C    0.10769000  0.69891000  0.56856000  0.00000000
C        C    0.56856000  0.19891000  0.60769000  0.00000000
C        C    0.39231000  0.19891000  0.56856000  0.00000000
C        C    0.19891000  0.43144000  0.39231000  0.00000000
C        C    0.39231000  0.80109000  0.43144000  0.00000000
C        C    0.43144000  0.19891000  0.60769000  0.00000000
C        C    0.06856000  0.30109000  0.39231000  0.00000000
C        C    0.19891000  0.93144000  0.10769000  0.00000000
C        C    0.93144000  0.30109000  0.39231000  0.00000000
C        C    0.10769000  0.80109000  0.06856000  0.00000000
C        C    0.93144000  0.60769000  0.69891000  0.00000000
C        C    0.39231000  0.19891000  0.43144000  0.00000000
C        C    0.43144000  0.89231000  0.69891000  0.00000000
C        C    0.10769000  0.30109000  0.43144000  0.00000000
C        C    0.60769000  0.06856000  0.30109000  0.00000000
C        C    0.10769000  0.93144000  0.80109000  0.00000000
C        C    0.43144000  0.60769000  0.19891000  0.00000000
C        C    0.19891000  0.10769000  0.93144000  0.00000000
C        C    0.80109000  0.93144000  0.10769000  0.00000000
C        C    0.19891000  0.39231000  0.56856000  0.00000000
C        C    0.93144000  0.69891000  0.60769000  0.00000000
C        C    0.69891000  0.06856000  0.39231000  0.00000000
C        C    0.43144000  0.69891000  0.89231000  0.00000000
C        C    0.69891000  0.89231000  0.56856000  0.00000000
C        C    0.56856000  0.39231000  0.80109000  0.00000000
C        C    0.10769000  0.06856000  0.19891000  0.00000000
C        C    0.43144000  0.30109000  0.10769000  0.00000000
C        C    0.89231000  0.80109000  0.93144000  0.00000000
C        C    0.43144000  0.30109000  0.89231000  0.00000000
C        C    0.06856000  0.69891000  0.60769000  0.00000000
C        C    0.93144000  0.10769000  0.80109000  0.00000000
C        C    0.60769000  0.30109000  0.06856000  0.00000000
C        C    0.19891000  0.89231000  0.06856000  0.00000000
C        C    0.39231000  0.69891000  0.06856000  0.00000000
C        C    0.89231000  0.69891000  0.43144000  0.00000000
C        C    0.39231000  0.06856000  0.69891000  0.00000000
C        C    0.89231000  0.06856000  0.80109000  0.00000000
C        C    0.56856000  0.60769000  0.19891000  0.00000000
C        C    0.69891000  0.39231000  0.93144000  0.00000000
C        C    0.19891000  0.93144000  0.89231000  0.00000000
C        C    0.06856000  0.19891000  0.10769000  0.00000000
C        C    0.69891000  0.93144000  0.39231000  0.00000000
C        C    0.10769000  0.30109000  0.56856000  0.00000000
C        C    0.60769000  0.69891000  0.93144000  0.00000000
C        C    0.06856000  0.60769000  0.30109000  0.00000000
C        C    0.80109000  0.60769000  0.56856000  0.00000000
C        C    0.06856000  0.80109000  0.89231000  0.00000000
C        C    0.19891000  0.89231000  0.93144000  0.00000000
C        C    0.89231000  0.30109000  0.43144000  0.00000000
C        C    0.89231000  0.56856000  0.69891000  0.00000000
C        C    0.69891000  0.60769000  0.93144000  0.00000000
C        C    0.43144000  0.39231000  0.80109000  0.00000000
C        C    0.30109000  0.39231000  0.06856000  0.00000000
C        C    0.06856000  0.80109000  0.10769000  0.00000000
C        C    0.39231000  0.56856000  0.19891000  0.00000000
C        C    0.60769000  0.43144000  0.80109000  0.00000000
C        C    0.06856000  0.10769000  0.19891000  0.00000000
C        C    0.19891000  0.43144000  0.60769000  0.00000000
C        C    0.19891000  0.56856000  0.39231000  0.00000000
C        C    0.89231000  0.69891000  0.56856000  0.00000000
C        C    0.69891000  0.10769000  0.43144000  0.00000000
C        C    0.30109000  0.56856000  0.89231000  0.00000000
C        C    0.56856000  0.30109000  0.10769000  0.00000000
C        C    0.39231000  0.30109000  0.93144000  0.00000000
C        C    0.93144000  0.10769000  0.19891000  0.00000000
C        C    0.60769000  0.93144000  0.69891000  0.00000000
C        C    0.30109000  0.89231000  0.56856000  0.00000000
C        C    0.89231000  0.93144000  0.19891000  0.00000000
C        C    0.56856000  0.89231000  0.30109000  0.00000000
C        C    0.80109000  0.10769000  0.93144000  0.00000000
C        C    0.89231000  0.19891000  0.93144000  0.00000000
C        C    0.39231000  0.69891000  0.93144000  0.00000000
C        C    0.69891000  0.43144000  0.89231000  0.00000000
C        C    0.69891000  0.60769000  0.06856000  0.00000000
C        C    0.43144000  0.19891000  0.39231000  0.00000000
C        C    0.10769000  0.43144000  0.30109000  0.00000000
C        C    0.06856000  0.89231000  0.80109000  0.00000000
C        C    0.06856000  0.10769000  0.80109000  0.00000000
C        C    0.60769000  0.80109000  0.56856000  0.00000000
C        C    0.19891000  0.39231000  0.43144000  0.00000000
C        C    0.10769000  0.69891000  0.43144000  0.00000000
C        C    0.30109000  0.39231000  0.93144000  0.00000000
C        C    0.93144000  0.80109000  0.89231000  0.00000000
C        C    0.80109000  0.89231000  0.06856000  0.00000000
C        C    0.56856000  0.19891000  0.39231000  0.00000000
C        C    0.30109000  0.93144000  0.60769000  0.00000000
C        C    0.19891000  0.56856000  0.60769000  0.00000000
C        C    0.93144000  0.39231000  0.69891000  0.00000000
C        C    0.69891000  0.06856000  0.60769000  0.00000000
C        C    0.30109000  0.06856000  0.39231000  0.00000000
C        C    0.56856000  0.10769000  0.69891000  0.00000000
C        C    0.19891000  0.10769000  0.06856000  0.00000000
C        C    0.43144000  0.80109000  0.60769000  0.00000000
C        C    0.30109000  0.93144000  0.39231000  0.00000000
C        C    0.30109000  0.60769000  0.06856000  0.00000000
C        C    0.39231000  0.30109000  0.06856000  0.00000000
C        C    0.60769000  0.93144000  0.30109000  0.00000000
C        C    0.60769000  0.56856000  0.80109000  0.00000000
C        C    0.39231000  0.56856000  0.80109000  0.00000000
C        C    0.30109000  0.43144000  0.89231000  0.00000000
C        C    0.39231000  0.93144000  0.30109000  0.00000000
C        C    0.06856000  0.89231000  0.19891000  0.00000000
C        C    0.69891000  0.89231000  0.43144000  0.00000000
C        C    0.30109000  0.56856000  0.10769000  0.00000000
C        C    0.06856000  0.19891000  0.89231000  0.00000000
C        C    0.80109000  0.10769000  0.06856000  0.00000000
C        C    0.56856000  0.10769000  0.30109000  0.00000000
C        C    0.39231000  0.43144000  0.19891000  0.00000000
C        C    0.30109000  0.60769000  0.93144000  0.00000000
C        C    0.69891000  0.56856000  0.10769000  0.00000000
C        C    0.89231000  0.06856000  0.19891000  0.00000000
C        C    0.56856000  0.30109000  0.89231000  0.00000000
C        C    0.60769000  0.30109000  0.93144000  0.00000000
C        C    0.93144000  0.80109000  0.10769000  0.00000000
C        C    0.56856000  0.60769000  0.80109000  0.00000000
C        C    0.80109000  0.39231000  0.56856000  0.00000000
C        C    0.69891000  0.43144000  0.10769000  0.00000000
C        C    0.80109000  0.06856000  0.89231000  0.00000000
C        C    0.80109000  0.89231000  0.93144000  0.00000000
C        C    0.80109000  0.93144000  0.89231000  0.00000000
C        C    0.60769000  0.80109000  0.43144000  0.00000000
C        C    0.56856000  0.89231000  0.69891000  0.00000000
C        C    0.93144000  0.30109000  0.60769000  0.00000000
C        C    0.19891000  0.06856000  0.10769000  0.00000000
C        C    0.06856000  0.69891000  0.39231000  0.00000000
C        C    0.06856000  0.60769000  0.69891000  0.00000000
C        C    0.30109000  0.43144000  0.10769000  0.00000000
C        C    0.10769000  0.19891000  0.06856000  0.00000000
C        C    0.56856000  0.39231000  0.19891000  0.00000000
C        C    0.80109000  0.56856000  0.39231000  0.00000000
C        C    0.56856000  0.69891000  0.10769000  0.00000000
C        C    0.89231000  0.80109000  0.06856000  0.00000000
C        C    0.77184000  0.57838000  0.61822000  0.00000000
C        C    0.42162000  0.11822000  0.27184000  0.00000000
C        C    0.72816000  0.57838000  0.88178000  0.00000000
C        C    0.11822000  0.22816000  0.92162000  0.00000000
C        C    0.92162000  0.38178000  0.27184000  0.00000000
C        C    0.88178000  0.92162000  0.77184000  0.00000000
C        C    0.88178000  0.22816000  0.07838000  0.00000000
C        C    0.11822000  0.77184000  0.92162000  0.00000000
C        C    0.92162000  0.88178000  0.77184000  0.00000000
C        C    0.92162000  0.61822000  0.27184000  0.00000000
C        C    0.72816000  0.38178000  0.07838000  0.00000000
C        C    0.11822000  0.57838000  0.72816000  0.00000000
C        C    0.11822000  0.07838000  0.77184000  0.00000000
C        C    0.92162000  0.72816000  0.38178000  0.00000000
C        C    0.27184000  0.88178000  0.42162000  0.00000000
C        C    0.72816000  0.92162000  0.61822000  0.00000000
C        C    0.42162000  0.11822000  0.72816000  0.00000000
C        C    0.42162000  0.77184000  0.38178000  0.00000000
C        C    0.11822000  0.42162000  0.72816000  0.00000000
C        C    0.77184000  0.42162000  0.61822000  0.00000000
C        C    0.42162000  0.88178000  0.27184000  0.00000000
C        C    0.27184000  0.11822000  0.42162000  0.00000000
C        C    0.77184000  0.61822000  0.42162000  0.00000000
C        C    0.42162000  0.61822000  0.77184000  0.00000000
C        C    0.38178000  0.92162000  0.72816000  0.00000000
C        C    0.77184000  0.07838000  0.11822000  0.00000000
C        C    0.22816000  0.61822000  0.42162000  0.00000000
C        C    0.22816000  0.61822000  0.57838000  0.00000000
C        C    0.61822000  0.22816000  0.57838000  0.00000000
C        C    0.57838000  0.72816000  0.88178000  0.00000000
C        C    0.57838000  0.77184000  0.61822000  0.00000000
C        C    0.27184000  0.11822000  0.57838000  0.00000000
C        C    0.22816000  0.07838000  0.88178000  0.00000000
C        C    0.11822000  0.57838000  0.27184000  0.00000000
C        C    0.77184000  0.42162000  0.38178000  0.00000000
C        C    0.72816000  0.11822000  0.57838000  0.00000000
C        C    0.92162000  0.88178000  0.22816000  0.00000000
C        C    0.38178000  0.42162000  0.77184000  0.00000000
C        C    0.57838000  0.77184000  0.38178000  0.00000000
C        C    0.61822000  0.42162000  0.22816000  0.00000000
C        C    0.92162000  0.22816000  0.88178000  0.00000000
C        C    0.11822000  0.92162000  0.22816000  0.00000000
C        C    0.38178000  0.07838000  0.27184000  0.00000000
C        C    0.07838000  0.27184000  0.61822000  0.00000000
C        C    0.61822000  0.07838000  0.72816000  0.00000000
C        C    0.88178000  0.27184000  0.57838000  0.00000000
C        C    0.88178000  0.42162000  0.27184000  0.00000000
C        C    0.88178000  0.57838000  0.27184000  0.00000000
C        C    0.38178000  0.77184000  0.57838000  0.00000000
C        C    0.61822000  0.22816000  0.42162000  0.00000000
C        C    0.77184000  0.38178000  0.42162000  0.00000000
C        C    0.92162000  0.22816000  0.11822000  0.00000000
C        C    0.07838000  0.38178000  0.27184000  0.00000000
C        C    0.27184000  0.07838000  0.61822000  0.00000000
C        C    0.61822000  0.72816000  0.07838000  0.00000000
C        C    0.42162000  0.38178000  0.22816000  0.00000000
C        C    0.42162000  0.72816000  0.11822000  0.00000000
C        C    0.88178000  0.42162000  0.72816000  0.00000000
C        C    0.61822000  0.57838000  0.22816000  0.00000000
C        C    0.07838000  0.38178000  0.72816000  0.00000000
C        C    0.11822000  0.72816000  0.57838000  0.00000000
C        C    0.57838000  0.22816000  0.61822000  0.00000000
C        C    0.38178000  0.22816000  0.57838000  0.00000000
C        C    0.22816000  0.42162000  0.38178000  0.00000000
C        C    0.38178000  0.77184000  0.42162000  0.00000000
C        C    0.42162000  0.22816000  0.61822000  0.00000000
C        C    0.07838000  0.27184000  0.38178000  0.00000000
C        C    0.22816000  0.92162000  0.11822000  0.00000000
C        C    0.92162000  0.27184000  0.38178000  0.00000000
C        C    0.11822000  0.77184000  0.07838000  0.00000000
C        C    0.92162000  0.61822000  0.72816000  0.00000000
C        C    0.38178000  0.22816000  0.42162000  0.00000000
C        C    0.42162000  0.88178000  0.72816000  0.00000000
C        C    0.11822000  0.27184000  0.42162000  0.00000000
C        C    0.61822000  0.07838000  0.27184000  0.00000000
C        C    0.11822000  0.92162000  0.77184000  0.00000000
C        C    0.42162000  0.61822000  0.22816000  0.00000000
C        C    0.22816000  0.11822000  0.92162000  0.00000000
C        C    0.77184000  0.92162000  0.11822000  0.00000000
C        C    0.22816000  0.38178000  0.57838000  0.00000000
C        C    0.92162000  0.72816000  0.61822000  0.00000000
C        C    0.72816000  0.07838000  0.38178000  0.00000000
C        C    0.42162000  0.72816000  0.88178000  0.00000000
C        C    0.72816000  0.88178000  0.57838000  0.00000000
C        C    0.57838000  0.38178000  0.77184000  0.00000000
C        C    0.11822000  0.07838000  0.22816000  0.00000000
C        C    0.42162000  0.27184000  0.11822000  0.00000000
C        C    0.88178000  0.77184000  0.92162000  0.00000000
C        C    0.42162000  0.27184000  0.88178000  0.00000000
C        C    0.07838000  0.72816000  0.61822000  0.00000000
C        C    0.92162000  0.11822000  0.77184000  0.00000000
C        C    0.61822000  0.27184000  0.07838000  0.00000000
C        C    0.22816000  0.88178000  0.07838000  0.00000000
C        C    0.38178000  0.72816000  0.07838000  0.00000000
C        C    0.88178000  0.72816000  0.42162000  0.00000000
C        C    0.38178000  0.07838000  0.72816000  0.00000000
C        C    0.88178000  0.07838000  0.77184000  0.00000000
C        C    0.57838000  0.61822000  0.22816000  0.00000000
C        C    0.72816000  0.38178000  0.92162000  0.00000000
C        C    0.22816000  0.92162000  0.88178000  0.00000000
C        C    0.07838000  0.22816000  0.11822000  0.00000000
C        C    0.72816000  0.92162000  0.38178000  0.00000000
C        C    0.11822000  0.27184000  0.57838000  0.00000000
C        C    0.61822000  0.72816000  0.92162000  0.00000000
C        C    0.07838000  0.61822000  0.27184000  0.00000000
C        C    0.77184000  0.61822000  0.57838000  0.00000000
C        C    0.07838000  0.77184000  0.88178000  0.00000000
C        C    0.22816000  0.88178000  0.92162000  0.00000000
C        C    0.88178000  0.27184000  0.42162000  0.00000000
C        C    0.88178000  0.57838000  0.72816000  0.00000000
C        C    0.72816000  0.61822000  0.92162000  0.00000000
C        C    0.42162000  0.38178000  0.77184000  0.00000000
C        C    0.27184000  0.38178000  0.07838000  0.00000000
C        C    0.07838000  0.77184000  0.11822000  0.00000000
C        C    0.38178000  0.57838000  0.22816000  0.00000000
C        C    0.61822000  0.42162000  0.77184000  0.00000000
C        C    0.07838000  0.11822000  0.22816000  0.00000000
C        C    0.22816000  0.42162000  0.61822000  0.00000000
C        C    0.22816000  0.57838000  0.38178000  0.00000000
C        C    0.88178000  0.72816000  0.57838000  0.00000000
C        C    0.72816000  0.11822000  0.42162000  0.00000000
C        C    0.27184000  0.57838000  0.88178000  0.00000000
C        C    0.57838000  0.27184000  0.11822000  0.00000000
C        C    0.38178000  0.27184000  0.92162000  0.00000000
C        C    0.92162000  0.11822000  0.22816000  0.00000000
C        C    0.61822000  0.92162000  0.72816000  0.00000000
C        C    0.27184000  0.88178000  0.57838000  0.00000000
C        C    0.88178000  0.92162000  0.22816000  0.00000000
C        C    0.57838000  0.88178000  0.27184000  0.00000000
C        C    0.77184000  0.11822000  0.92162000  0.00000000
C        C    0.88178000  0.22816000  0.92162000  0.00000000
C        C    0.38178000  0.72816000  0.92162000  0.00000000
C        C    0.72816000  0.42162000  0.88178000  0.00000000
C        C    0.72816000  0.61822000  0.07838000  0.00000000
C        C    0.42162000  0.22816000  0.38178000  0.00000000
C        C    0.11822000  0.42162000  0.27184000  0.00000000
C        C    0.07838000  0.88178000  0.77184000  0.00000000
C        C    0.07838000  0.11822000  0.77184000  0.00000000
C        C    0.61822000  0.77184000  0.57838000  0.00000000
C        C    0.22816000  0.38178000  0.42162000  0.00000000
C        C    0.11822000  0.72816000  0.42162000  0.00000000
C        C    0.27184000  0.38178000  0.92162000  0.00000000
C        C    0.92162000  0.77184000  0.88178000  0.00000000
C        C    0.77184000  0.88178000  0.07838000  0.00000000
C        C    0.57838000  0.22816000  0.38178000  0.00000000
C        C    0.27184000  0.92162000  0.61822000  0.00000000
C        C    0.22816000  0.57838000  0.61822000  0.00000000
C        C    0.92162000  0.38178000  0.72816000  0.00000000
C        C    0.72816000  0.07838000  0.61822000  0.00000000
C        C    0.27184000  0.07838000  0.38178000  0.00000000
C        C    0.57838000  0.11822000  0.72816000  0.00000000
C        C    0.22816000  0.11822000  0.07838000  0.00000000
C        C    0.42162000  0.77184000  0.61822000  0.00000000
C        C    0.27184000  0.92162000  0.38178000  0.00000000
C        C    0.27184000  0.61822000  0.07838000  0.00000000
C        C    0.38178000  0.27184000  0.07838000  0.00000000
C        C    0.61822000  0.92162000  0.27184000  0.00000000
C        C    0.61822000  0.57838000  0.77184000  0.00000000
C        C    0.38178000  0.57838000  0.77184000  0.00000000
C        C    0.27184000  0.42162000  0.88178000  0.00000000
C        C    0.38178000  0.92162000  0.27184000  0.00000000
C        C    0.07838000  0.88178000  0.22816000  0.00000000
C        C    0.72816000  0.88178000  0.42162000  0.00000000
C        C    0.27184000  0.57838000  0.11822000  0.00000000
C        C    0.07838000  0.22816000  0.88178000  0.00000000
C        C    0.77184000  0.11822000  0.07838000  0.00000000
C        C    0.57838000  0.11822000  0.27184000  0.00000000
C        C    0.38178000  0.42162000  0.22816000  0.00000000
C        C    0.27184000  0.61822000  0.92162000  0.00000000
C        C    0.72816000  0.57838000  0.11822000  0.00000000
C        C    0.88178000  0.07838000  0.22816000  0.00000000
C        C    0.57838000  0.27184000  0.88178000  0.00000000
C        C    0.61822000  0.27184000  0.92162000  0.00000000
C        C    0.92162000  0.77184000  0.11822000  0.00000000
C        C    0.57838000  0.61822000  0.77184000  0.00000000
C        C    0.77184000  0.38178000  0.57838000  0.00000000
C        C    0.72816000  0.42162000  0.11822000  0.00000000
C        C    0.77184000  0.07838000  0.88178000  0.00000000
C        C    0.77184000  0.88178000  0.92162000  0.00000000
C        C    0.77184000  0.92162000  0.88178000  0.00000000
C        C    0.61822000  0.77184000  0.42162000  0.00000000
C        C    0.57838000  0.88178000  0.72816000  0.00000000
C        C    0.92162000  0.27184000  0.61822000  0.00000000
C        C    0.22816000  0.07838000  0.11822000  0.00000000
C        C    0.07838000  0.72816000  0.38178000  0.00000000
C        C    0.07838000  0.61822000  0.72816000  0.00000000
C        C    0.27184000  0.42162000  0.11822000  0.00000000
C        C    0.11822000  0.22816000  0.07838000  0.00000000
C        C    0.57838000  0.38178000  0.22816000  0.00000000
C        C    0.77184000  0.57838000  0.38178000  0.00000000
C        C    0.57838000  0.72816000  0.11822000  0.00000000
C        C    0.88178000  0.77184000  0.07838000  0.00000000
H        H    0.76220000  0.56840000  0.63550000  0.00000000
H        H    0.43160000  0.13550000  0.26220000  0.00000000
H        H    0.73780000  0.56840000  0.86450000  0.00000000
H        H    0.13550000  0.23780000  0.93160000  0.00000000
H        H    0.93160000  0.36450000  0.26220000  0.00000000
H        H    0.86450000  0.93160000  0.76220000  0.00000000
H        H    0.86450000  0.23780000  0.06840000  0.00000000
H        H    0.13550000  0.76220000  0.93160000  0.00000000
H        H    0.93160000  0.86450000  0.76220000  0.00000000
H        H    0.93160000  0.63550000  0.26220000  0.00000000
H        H    0.73780000  0.36450000  0.06840000  0.00000000
H        H    0.13550000  0.56840000  0.73780000  0.00000000
H        H    0.13550000  0.06840000  0.76220000  0.00000000
H        H    0.93160000  0.73780000  0.36450000  0.00000000
H        H    0.26220000  0.86450000  0.43160000  0.00000000
H        H    0.73780000  0.93160000  0.63550000  0.00000000
H        H    0.43160000  0.13550000  0.73780000  0.00000000
H        H    0.43160000  0.76220000  0.36450000  0.00000000
H        H    0.13550000  0.43160000  0.73780000  0.00000000
H        H    0.76220000  0.43160000  0.63550000  0.00000000
H        H    0.43160000  0.86450000  0.26220000  0.00000000
H        H    0.26220000  0.13550000  0.43160000  0.00000000
H        H    0.76220000  0.63550000  0.43160000  0.00000000
H        H    0.43160000  0.63550000  0.76220000  0.00000000
H        H    0.36450000  0.93160000  0.73780000  0.00000000
H        H    0.76220000  0.06840000  0.13550000  0.00000000
H        H    0.23780000  0.63550000  0.43160000  0.00000000
H        H    0.23780000  0.63550000  0.56840000  0.00000000
H        H    0.63550000  0.23780000  0.56840000  0.00000000
H        H    0.56840000  0.73780000  0.86450000  0.00000000
H        H    0.56840000  0.76220000  0.63550000  0.00000000
H        H    0.26220000  0.13550000  0.56840000  0.00000000
H        H    0.23780000  0.06840000  0.86450000  0.00000000
H        H    0.13550000  0.56840000  0.26220000  0.00000000
H        H    0.76220000  0.43160000  0.36450000  0.00000000
H        H    0.73780000  0.13550000  0.56840000  0.00000000
H        H    0.93160000  0.86450000  0.23780000  0.00000000
H        H    0.36450000  0.43160000  0.76220000  0.00000000
H        H    0.56840000  0.76220000  0.36450000  0.00000000
H        H    0.63550000  0.43160000  0.23780000  0.00000000
H        H    0.93160000  0.23780000  0.86450000  0.00000000
H        H    0.13550000  0.93160000  0.23780000  0.00000000
H        H    0.36450000  0.06840000  0.26220000  0.00000000
H        H    0.06840000  0.26220000  0.63550000  0.00000000
H        H    0.63550000  0.06840000  0.73780000  0.00000000
H        H    0.86450000  0.26220000  0.56840000  0.00000000
H        H    0.86450000  0.43160000  0.26220000  0.00000000
H        H    0.86450000  0.56840000  0.26220000  0.00000000
H        H    0.36450000  0.76220000  0.56840000  0.00000000
H        H    0.63550000  0.23780000  0.43160000  0.00000000
H        H    0.76220000  0.36450000  0.43160000  0.00000000
H        H    0.93160000  0.23780000  0.13550000  0.00000000
H        H    0.06840000  0.36450000  0.26220000  0.00000000
H        H    0.26220000  0.06840000  0.63550000  0.00000000
H        H    0.63550000  0.73780000  0.06840000  0.00000000
H        H    0.43160000  0.36450000  0.23780000  0.00000000
H        H    0.43160000  0.73780000  0.13550000  0.00000000
H        H    0.86450000  0.43160000  0.73780000  0.00000000
H        H    0.63550000  0.56840000  0.23780000  0.00000000
H        H    0.06840000  0.36450000  0.73780000  0.00000000
H        H    0.13550000  0.73780000  0.56840000  0.00000000
H        H    0.56840000  0.23780000  0.63550000  0.00000000
H        H    0.36450000  0.23780000  0.56840000  0.00000000
H        H    0.23780000  0.43160000  0.36450000  0.00000000
H        H    0.36450000  0.76220000  0.43160000  0.00000000
H        H    0.43160000  0.23780000  0.63550000  0.00000000
H        H    0.06840000  0.26220000  0.36450000  0.00000000
H        H    0.23780000  0.93160000  0.13550000  0.00000000
H        H    0.93160000  0.26220000  0.36450000  0.00000000
H        H    0.13550000  0.76220000  0.06840000  0.00000000
H        H    0.93160000  0.63550000  0.73780000  0.00000000
H        H    0.36450000  0.23780000  0.43160000  0.00000000
H        H    0.43160000  0.86450000  0.73780000  0.00000000
H        H    0.13550000  0.26220000  0.43160000  0.00000000
H        H    0.63550000  0.06840000  0.26220000  0.00000000
H        H    0.13550000  0.93160000  0.76220000  0.00000000
H        H    0.43160000  0.63550000  0.23780000  0.00000000
H        H    0.23780000  0.13550000  0.93160000  0.00000000
H        H    0.76220000  0.93160000  0.13550000  0.00000000
H        H    0.23780000  0.36450000  0.56840000  0.00000000
H        H    0.93160000  0.73780000  0.63550000  0.00000000
H        H    0.73780000  0.06840000  0.36450000  0.00000000
H        H    0.43160000  0.73780000  0.86450000  0.00000000
H        H    0.73780000  0.86450000  0.56840000  0.00000000
H        H    0.56840000  0.36450000  0.76220000  0.00000000
H        H    0.13550000  0.06840000  0.23780000  0.00000000
H        H    0.43160000  0.26220000  0.13550000  0.00000000
H        H    0.86450000  0.76220000  0.93160000  0.00000000
H        H    0.43160000  0.26220000  0.86450000  0.00000000
H        H    0.06840000  0.73780000  0.63550000  0.00000000
H        H    0.93160000  0.13550000  0.76220000  0.00000000
H        H    0.63550000  0.26220000  0.06840000  0.00000000
H        H    0.23780000  0.86450000  0.06840000  0.00000000
H        H    0.36450000  0.73780000  0.06840000  0.00000000
H        H    0.86450000  0.73780000  0.43160000  0.00000000
H        H    0.36450000  0.06840000  0.73780000  0.00000000
H        H    0.86450000  0.06840000  0.76220000  0.00000000
H        H    0.56840000  0.63550000  0.23780000  0.00000000
H        H    0.73780000  0.36450000  0.93160000  0.00000000
H        H    0.23780000  0.93160000  0.86450000  0.00000000
H        H    0.06840000  0.23780000  0.13550000  0.00000000
H        H    0.73780000  0.93160000  0.36450000  0.00000000
H        H    0.13550000  0.26220000  0.56840000  0.00000000
H        H    0.63550000  0.73780000  0.93160000  0.00000000
H        H    0.06840000  0.63550000  0.26220000  0.00000000
H        H    0.76220000  0.63550000  0.56840000  0.00000000
H        H    0.06840000  0.76220000  0.86450000  0.00000000
H        H    0.23780000  0.86450000  0.93160000  0.00000000
H        H    0.86450000  0.26220000  0.43160000  0.00000000
H        H    0.86450000  0.56840000  0.73780000  0.00000000
H        H    0.73780000  0.63550000  0.93160000  0.00000000
H        H    0.43160000  0.36450000  0.76220000  0.00000000
H        H    0.26220000  0.36450000  0.06840000  0.00000000
H        H    0.06840000  0.76220000  0.13550000  0.00000000
H        H    0.36450000  0.56840000  0.23780000  0.00000000
H        H    0.63550000  0.43160000  0.76220000  0.00000000
H        H    0.06840000  0.13550000  0.23780000  0.00000000
H        H    0.23780000  0.43160000  0.63550000  0.00000000
H        H    0.23780000  0.56840000  0.36450000  0.00000000
H        H    0.86450000  0.73780000  0.56840000  0.00000000
H        H    0.73780000  0.13550000  0.43160000  0.00000000
H        H    0.26220000  0.56840000  0.86450000  0.00000000
H        H    0.56840000  0.26220000  0.13550000  0.00000000
H        H    0.36450000  0.26220000  0.93160000  0.00000000
H        H    0.93160000  0.13550000  0.23780000  0.00000000
H        H    0.63550000  0.93160000  0.73780000  0.00000000
H        H    0.26220000  0.86450000  0.56840000  0.00000000
H        H    0.86450000  0.93160000  0.23780000  0.00000000
H        H    0.56840000  0.86450000  0.26220000  0.00000000
H        H    0.76220000  0.13550000  0.93160000  0.00000000
H        H    0.86450000  0.23780000  0.93160000  0.00000000
H        H    0.36450000  0.73780000  0.93160000  0.00000000
H        H    0.73780000  0.43160000  0.86450000  0.00000000
H        H    0.73780000  0.63550000  0.06840000  0.00000000
H        H    0.43160000  0.23780000  0.36450000  0.00000000
H        H    0.13550000  0.43160000  0.26220000  0.00000000
H        H    0.06840000  0.86450000  0.76220000  0.00000000
H        H    0.06840000  0.13550000  0.76220000  0.00000000
H        H    0.63550000  0.76220000  0.56840000  0.00000000
H        H    0.23780000  0.36450000  0.43160000  0.00000000
H        H    0.13550000  0.73780000  0.43160000  0.00000000
H        H    0.26220000  0.36450000  0.93160000  0.00000000
H        H    0.93160000  0.76220000  0.86450000  0.00000000
H        H    0.76220000  0.86450000  0.06840000  0.00000000
H        H    0.56840000  0.23780000  0.36450000  0.00000000
H        H    0.26220000  0.93160000  0.63550000  0.00000000
H        H    0.23780000  0.56840000  0.63550000  0.00000000
H        H    0.93160000  0.36450000  0.73780000  0.00000000
H        H    0.73780000  0.06840000  0.63550000  0.00000000
H        H    0.26220000  0.06840000  0.36450000  0.00000000
H        H    0.56840000  0.13550000  0.73780000  0.00000000
H        H    0.23780000  0.13550000  0.06840000  0.00000000
H        H    0.43160000  0.76220000  0.63550000  0.00000000
H        H    0.26220000  0.93160000  0.36450000  0.00000000
H        H    0.26220000  0.63550000  0.06840000  0.00000000
H        H    0.36450000  0.26220000  0.06840000  0.00000000
H        H    0.63550000  0.93160000  0.26220000  0.00000000
H        H    0.63550000  0.56840000  0.76220000  0.00000000
H        H    0.36450000  0.56840000  0.76220000  0.00000000
H        H    0.26220000  0.43160000  0.86450000  0.00000000
H        H    0.36450000  0.93160000  0.26220000  0.00000000
H        H    0.06840000  0.86450000  0.23780000  0.00000000
H        H    0.73780000  0.86450000  0.43160000  0.00000000
H        H    0.26220000  0.56840000  0.13550000  0.00000000
H        H    0.06840000  0.23780000  0.86450000  0.00000000
H        H    0.76220000  0.13550000  0.06840000  0.00000000
H        H    0.56840000  0.13550000  0.26220000  0.00000000
H        H    0.36450000  0.43160000  0.23780000  0.00000000
H        H    0.26220000  0.63550000  0.93160000  0.00000000
H        H    0.73780000  0.56840000  0.13550000  0.00000000
H        H    0.86450000  0.06840000  0.23780000  0.00000000
H        H    0.56840000  0.26220000  0.86450000  0.00000000
H        H    0.63550000  0.26220000  0.93160000  0.00000000
H        H    0.93160000  0.76220000  0.13550000  0.00000000
H        H    0.56840000  0.63550000  0.76220000  0.00000000
H        H    0.76220000  0.36450000  0.56840000  0.00000000
H        H    0.73780000  0.43160000  0.13550000  0.00000000
H        H    0.76220000  0.06840000  0.86450000  0.00000000
H        H    0.76220000  0.86450000  0.93160000  0.00000000
H        H    0.76220000  0.93160000  0.86450000  0.00000000
H        H    0.63550000  0.76220000  0.43160000  0.00000000
H        H    0.56840000  0.86450000  0.73780000  0.00000000
H        H    0.93160000  0.26220000  0.63550000  0.00000000
H        H    0.23780000  0.06840000  0.13550000  0.00000000
H        H    0.06840000  0.73780000  0.36450000  0.00000000
H        H    0.06840000  0.63550000  0.73780000  0.00000000
H        H    0.26220000  0.43160000  0.13550000  0.00000000
H        H    0.13550000  0.23780000  0.06840000  0.00000000
H        H    0.56840000  0.36450000  0.23780000  0.00000000
H        H    0.76220000  0.56840000  0.36450000  0.00000000
H        H    0.56840000  0.73780000  0.13550000  0.00000000
H        H    0.86450000  0.76220000  0.06840000  0.00000000
C        C    0.89702000  0.89702000  0.75720000  0.00000000
C        C    0.39702000  0.10298000  0.25720000  0.00000000
C        C    0.89702000  0.39702000  0.25720000  0.00000000
C        C    0.89702000  0.60298000  0.25720000  0.00000000
C        C    0.75720000  0.39702000  0.39702000  0.00000000
C        C    0.89702000  0.24280000  0.10298000  0.00000000
C        C    0.25720000  0.10298000  0.60298000  0.00000000
C        C    0.10298000  0.39702000  0.74280000  0.00000000
C        C    0.60298000  0.24280000  0.60298000  0.00000000
C        C    0.39702000  0.75720000  0.39702000  0.00000000
C        C    0.39702000  0.24280000  0.60298000  0.00000000
C        C    0.39702000  0.89702000  0.74280000  0.00000000
C        C    0.10298000  0.25720000  0.39702000  0.00000000
C        C    0.24280000  0.10298000  0.89702000  0.00000000
C        C    0.74280000  0.89702000  0.60298000  0.00000000
C        C    0.10298000  0.74280000  0.60298000  0.00000000
C        C    0.24280000  0.89702000  0.10298000  0.00000000
C        C    0.39702000  0.74280000  0.10298000  0.00000000
C        C    0.89702000  0.74280000  0.39702000  0.00000000
C        C    0.39702000  0.10298000  0.74280000  0.00000000
C        C    0.89702000  0.10298000  0.75720000  0.00000000
C        C    0.60298000  0.60298000  0.24280000  0.00000000
C        C    0.10298000  0.25720000  0.60298000  0.00000000
C        C    0.60298000  0.74280000  0.89702000  0.00000000
C        C    0.10298000  0.60298000  0.25720000  0.00000000
C        C    0.75720000  0.60298000  0.60298000  0.00000000
C        C    0.10298000  0.75720000  0.89702000  0.00000000
C        C    0.24280000  0.89702000  0.89702000  0.00000000
C        C    0.89702000  0.25720000  0.39702000  0.00000000
C        C    0.89702000  0.60298000  0.74280000  0.00000000
C        C    0.74280000  0.60298000  0.89702000  0.00000000
C        C    0.39702000  0.39702000  0.75720000  0.00000000
C        C    0.10298000  0.75720000  0.10298000  0.00000000
C        C    0.39702000  0.60298000  0.24280000  0.00000000
C        C    0.60298000  0.39702000  0.75720000  0.00000000
C        C    0.10298000  0.10298000  0.24280000  0.00000000
C        C    0.24280000  0.39702000  0.60298000  0.00000000
C        C    0.24280000  0.60298000  0.39702000  0.00000000
C        C    0.89702000  0.74280000  0.60298000  0.00000000
C        C    0.74280000  0.10298000  0.39702000  0.00000000
C        C    0.60298000  0.25720000  0.10298000  0.00000000
C        C    0.39702000  0.25720000  0.89702000  0.00000000
C        C    0.89702000  0.89702000  0.24280000  0.00000000
C        C    0.89702000  0.24280000  0.89702000  0.00000000
C        C    0.39702000  0.74280000  0.89702000  0.00000000
C        C    0.74280000  0.39702000  0.89702000  0.00000000
C        C    0.39702000  0.24280000  0.39702000  0.00000000
C        C    0.10298000  0.39702000  0.25720000  0.00000000
C        C    0.10298000  0.89702000  0.75720000  0.00000000
C        C    0.10298000  0.10298000  0.75720000  0.00000000
C        C    0.60298000  0.75720000  0.60298000  0.00000000
C        C    0.24280000  0.39702000  0.39702000  0.00000000
C        C    0.89702000  0.75720000  0.89702000  0.00000000
C        C    0.75720000  0.89702000  0.10298000  0.00000000
C        C    0.60298000  0.24280000  0.39702000  0.00000000
C        C    0.25720000  0.89702000  0.60298000  0.00000000
C        C    0.24280000  0.60298000  0.60298000  0.00000000
C        C    0.89702000  0.39702000  0.74280000  0.00000000
C        C    0.74280000  0.10298000  0.60298000  0.00000000
C        C    0.25720000  0.10298000  0.39702000  0.00000000
C        C    0.60298000  0.10298000  0.74280000  0.00000000
C        C    0.39702000  0.75720000  0.60298000  0.00000000
C        C    0.25720000  0.89702000  0.39702000  0.00000000
C        C    0.39702000  0.25720000  0.10298000  0.00000000
C        C    0.60298000  0.89702000  0.25720000  0.00000000
C        C    0.39702000  0.60298000  0.75720000  0.00000000
C        C    0.25720000  0.39702000  0.89702000  0.00000000
C        C    0.39702000  0.89702000  0.25720000  0.00000000
C        C    0.10298000  0.89702000  0.24280000  0.00000000
C        C    0.74280000  0.89702000  0.39702000  0.00000000
C        C    0.25720000  0.60298000  0.10298000  0.00000000
C        C    0.10298000  0.24280000  0.89702000  0.00000000
C        C    0.75720000  0.10298000  0.10298000  0.00000000
C        C    0.60298000  0.10298000  0.25720000  0.00000000
C        C    0.39702000  0.39702000  0.24280000  0.00000000
C        C    0.25720000  0.60298000  0.89702000  0.00000000
C        C    0.74280000  0.60298000  0.10298000  0.00000000
C        C    0.89702000  0.10298000  0.24280000  0.00000000
C        C    0.60298000  0.25720000  0.89702000  0.00000000
C        C    0.60298000  0.60298000  0.75720000  0.00000000
C        C    0.75720000  0.39702000  0.60298000  0.00000000
C        C    0.74280000  0.39702000  0.10298000  0.00000000
C        C    0.75720000  0.10298000  0.89702000  0.00000000
C        C    0.75720000  0.89702000  0.89702000  0.00000000
C        C    0.60298000  0.75720000  0.39702000  0.00000000
C        C    0.60298000  0.89702000  0.74280000  0.00000000
C        C    0.89702000  0.25720000  0.60298000  0.00000000
C        C    0.24280000  0.10298000  0.10298000  0.00000000
C        C    0.10298000  0.74280000  0.39702000  0.00000000
C        C    0.10298000  0.60298000  0.74280000  0.00000000
C        C    0.25720000  0.39702000  0.10298000  0.00000000
C        C    0.10298000  0.24280000  0.10298000  0.00000000
C        C    0.60298000  0.39702000  0.24280000  0.00000000
C        C    0.75720000  0.60298000  0.39702000  0.00000000
C        C    0.60298000  0.74280000  0.10298000  0.00000000
C        C    0.89702000  0.75720000  0.10298000  0.00000000
C        C    0.88702000  0.88702000  0.72910000  0.00000000
C        C    0.38702000  0.11298000  0.22910000  0.00000000
C        C    0.88702000  0.38702000  0.22910000  0.00000000
C        C    0.88702000  0.61298000  0.22910000  0.00000000
C        C    0.72910000  0.38702000  0.38702000  0.00000000
C        C    0.88702000  0.27090000  0.11298000  0.00000000
C        C    0.22910000  0.11298000  0.61298000  0.00000000
C        C    0.11298000  0.38702000  0.77090000  0.00000000
C        C    0.61298000  0.27090000  0.61298000  0.00000000
C        C    0.38702000  0.72910000  0.38702000  0.00000000
C        C    0.38702000  0.27090000  0.61298000  0.00000000
C        C    0.38702000  0.88702000  0.77090000  0.00000000
C        C    0.11298000  0.22910000  0.38702000  0.00000000
C        C    0.27090000  0.11298000  0.88702000  0.00000000
C        C    0.77090000  0.88702000  0.61298000  0.00000000
C        C    0.11298000  0.77090000  0.61298000  0.00000000
C        C    0.27090000  0.88702000  0.11298000  0.00000000
C        C    0.38702000  0.77090000  0.11298000  0.00000000
C        C    0.88702000  0.77090000  0.38702000  0.00000000
C        C    0.38702000  0.11298000  0.77090000  0.00000000
C        C    0.88702000  0.11298000  0.72910000  0.00000000
C        C    0.61298000  0.61298000  0.27090000  0.00000000
C        C    0.11298000  0.22910000  0.61298000  0.00000000
C        C    0.61298000  0.77090000  0.88702000  0.00000000
C        C    0.11298000  0.61298000  0.22910000  0.00000000
C        C    0.72910000  0.61298000  0.61298000  0.00000000
C        C    0.11298000  0.72910000  0.88702000  0.00000000
C        C    0.27090000  0.88702000  0.88702000  0.00000000
C        C    0.88702000  0.22910000  0.38702000  0.00000000
C        C    0.88702000  0.61298000  0.77090000  0.00000000
C        C    0.77090000  0.61298000  0.88702000  0.00000000
C        C    0.38702000  0.38702000  0.72910000  0.00000000
C        C    0.11298000  0.72910000  0.11298000  0.00000000
C        C    0.38702000  0.61298000  0.27090000  0.00000000
C        C    0.61298000  0.38702000  0.72910000  0.00000000
C        C    0.11298000  0.11298000  0.27090000  0.00000000
C        C    0.27090000  0.38702000  0.61298000  0.00000000
C        C    0.27090000  0.61298000  0.38702000  0.00000000
C        C    0.88702000  0.77090000  0.61298000  0.00000000
C        C    0.77090000  0.11298000  0.38702000  0.00000000
C        C    0.61298000  0.22910000  0.11298000  0.00000000
C        C    0.38702000  0.22910000  0.88702000  0.00000000
C        C    0.88702000  0.88702000  0.27090000  0.00000000
C        C    0.88702000  0.27090000  0.88702000  0.00000000
C        C    0.38702000  0.77090000  0.88702000  0.00000000
C        C    0.77090000  0.38702000  0.88702000  0.00000000
C        C    0.38702000  0.27090000  0.38702000  0.00000000
C        C    0.11298000  0.38702000  0.22910000  0.00000000
C        C    0.11298000  0.88702000  0.72910000  0.00000000
C        C    0.11298000  0.11298000  0.72910000  0.00000000
C        C    0.61298000  0.72910000  0.61298000  0.00000000
C        C    0.27090000  0.38702000  0.38702000  0.00000000
C        C    0.88702000  0.72910000  0.88702000  0.00000000
C        C    0.72910000  0.88702000  0.11298000  0.00000000
C        C    0.61298000  0.27090000  0.38702000  0.00000000
C        C    0.22910000  0.88702000  0.61298000  0.00000000
C        C    0.27090000  0.61298000  0.61298000  0.00000000
C        C    0.88702000  0.38702000  0.77090000  0.00000000
C        C    0.77090000  0.11298000  0.61298000  0.00000000
C        C    0.22910000  0.11298000  0.38702000  0.00000000
C        C    0.61298000  0.11298000  0.77090000  0.00000000
C        C    0.38702000  0.72910000  0.61298000  0.00000000
C        C    0.22910000  0.88702000  0.38702000  0.00000000
C        C    0.38702000  0.22910000  0.11298000  0.00000000
C        C    0.61298000  0.88702000  0.22910000  0.00000000
C        C    0.38702000  0.61298000  0.72910000  0.00000000
C        C    0.22910000  0.38702000  0.88702000  0.00000000
C        C    0.38702000  0.88702000  0.22910000  0.00000000
C        C    0.11298000  0.88702000  0.27090000  0.00000000
C        C    0.77090000  0.88702000  0.38702000  0.00000000
C        C    0.22910000  0.61298000  0.11298000  0.00000000
C        C    0.11298000  0.27090000  0.88702000  0.00000000
C        C    0.72910000  0.11298000  0.11298000  0.00000000
C        C    0.61298000  0.11298000  0.22910000  0.00000000
C        C    0.38702000  0.38702000  0.27090000  0.00000000
C        C    0.22910000  0.61298000  0.88702000  0.00000000
C        C    0.77090000  0.61298000  0.11298000  0.00000000
C        C    0.88702000  0.11298000  0.27090000  0.00000000
C        C    0.61298000  0.22910000  0.88702000  0.00000000
C        C    0.61298000  0.61298000  0.72910000  0.00000000
C        C    0.72910000  0.38702000  0.61298000  0.00000000
C        C    0.77090000  0.38702000  0.11298000  0.00000000
C        C    0.72910000  0.11298000  0.88702000  0.00000000
C        C    0.72910000  0.88702000  0.88702000  0.00000000
C        C    0.61298000  0.72910000  0.38702000  0.00000000
C        C    0.61298000  0.88702000  0.77090000  0.00000000
C        C    0.88702000  0.22910000  0.61298000  0.00000000
C        C    0.27090000  0.11298000  0.11298000  0.00000000
C        C    0.11298000  0.77090000  0.38702000  0.00000000
C        C    0.11298000  0.61298000  0.77090000  0.00000000
C        C    0.22910000  0.38702000  0.11298000  0.00000000
C        C    0.11298000  0.27090000  0.11298000  0.00000000
C        C    0.61298000  0.38702000  0.27090000  0.00000000
C        C    0.72910000  0.61298000  0.38702000  0.00000000
C        C    0.61298000  0.77090000  0.11298000  0.00000000
C        C    0.88702000  0.72910000  0.11298000  0.00000000
C        C    0.87790000  0.87790000  0.70390000  0.00000000
C        C    0.37790000  0.12210000  0.20390000  0.00000000
C        C    0.87790000  0.37790000  0.20390000  0.00000000
C        C    0.87790000  0.62210000  0.20390000  0.00000000
C        C    0.70390000  0.37790000  0.37790000  0.00000000
C        C    0.87790000  0.29610000  0.12210000  0.00000000
C        C    0.20390000  0.12210000  0.62210000  0.00000000
C        C    0.12210000  0.37790000  0.79610000  0.00000000
C        C    0.62210000  0.29610000  0.62210000  0.00000000
C        C    0.37790000  0.70390000  0.37790000  0.00000000
C        C    0.37790000  0.29610000  0.62210000  0.00000000
C        C    0.37790000  0.87790000  0.79610000  0.00000000
C        C    0.12210000  0.20390000  0.37790000  0.00000000
C        C    0.29610000  0.12210000  0.87790000  0.00000000
C        C    0.79610000  0.87790000  0.62210000  0.00000000
C        C    0.12210000  0.79610000  0.62210000  0.00000000
C        C    0.29610000  0.87790000  0.12210000  0.00000000
C        C    0.37790000  0.79610000  0.12210000  0.00000000
C        C    0.87790000  0.79610000  0.37790000  0.00000000
C        C    0.37790000  0.12210000  0.79610000  0.00000000
C        C    0.87790000  0.12210000  0.70390000  0.00000000
C        C    0.62210000  0.62210000  0.29610000  0.00000000
C        C    0.12210000  0.20390000  0.62210000  0.00000000
C        C    0.62210000  0.79610000  0.87790000  0.00000000
C        C    0.12210000  0.62210000  0.20390000  0.00000000
C        C    0.70390000  0.62210000  0.62210000  0.00000000
C        C    0.12210000  0.70390000  0.87790000  0.00000000
C        C    0.29610000  0.87790000  0.87790000  0.00000000
C        C    0.87790000  0.20390000  0.37790000  0.00000000
C        C    0.87790000  0.62210000  0.79610000  0.00000000
C        C    0.79610000  0.62210000  0.87790000  0.00000000
C        C    0.37790000  0.37790000  0.70390000  0.00000000
C        C    0.12210000  0.70390000  0.12210000  0.00000000
C        C    0.37790000  0.62210000  0.29610000  0.00000000
C        C    0.62210000  0.37790000  0.70390000  0.00000000
C        C    0.12210000  0.12210000  0.29610000  0.00000000
C        C    0.29610000  0.37790000  0.62210000  0.00000000
C        C    0.29610000  0.62210000  0.37790000  0.00000000
C        C    0.87790000  0.79610000  0.62210000  0.00000000
C        C    0.79610000  0.12210000  0.37790000  0.00000000
C        C    0.62210000  0.20390000  0.12210000  0.00000000
C        C    0.37790000  0.20390000  0.87790000  0.00000000
C        C    0.87790000  0.87790000  0.29610000  0.00000000
C        C    0.87790000  0.29610000  0.87790000  0.00000000
C        C    0.37790000  0.79610000  0.87790000  0.00000000
C        C    0.79610000  0.37790000  0.87790000  0.00000000
C        C    0.37790000  0.29610000  0.37790000  0.00000000
C        C    0.12210000  0.37790000  0.20390000  0.00000000
C        C    0.12210000  0.87790000  0.70390000  0.00000000
C        C    0.12210000  0.12210000  0.70390000  0.00000000
C        C    0.62210000  0.70390000  0.62210000  0.00000000
C        C    0.29610000  0.37790000  0.37790000  0.00000000
C        C    0.87790000  0.70390000  0.87790000  0.00000000
C        C    0.70390000  0.87790000  0.12210000  0.00000000
C        C    0.62210000  0.29610000  0.37790000  0.00000000
C        C    0.20390000  0.87790000  0.62210000  0.00000000
C        C    0.29610000  0.62210000  0.62210000  0.00000000
C        C    0.87790000  0.37790000  0.79610000  0.00000000
C        C    0.79610000  0.12210000  0.62210000  0.00000000
C        C    0.20390000  0.12210000  0.37790000  0.00000000
C        C    0.62210000  0.12210000  0.79610000  0.00000000
C        C    0.37790000  0.70390000  0.62210000  0.00000000
C        C    0.20390000  0.87790000  0.37790000  0.00000000
C        C    0.37790000  0.20390000  0.12210000  0.00000000
C        C    0.62210000  0.87790000  0.20390000  0.00000000
C        C    0.37790000  0.62210000  0.70390000  0.00000000
C        C    0.20390000  0.37790000  0.87790000  0.00000000
C        C    0.37790000  0.87790000  0.20390000  0.00000000
C        C    0.12210000  0.87790000  0.29610000  0.00000000
C        C    0.79610000  0.87790000  0.37790000  0.00000000
C        C    0.20390000  0.62210000  0.12210000  0.00000000
C        C    0.12210000  0.29610000  0.87790000  0.00000000
C        C    0.70390000  0.12210000  0.12210000  0.00000000
C        C    0.62210000  0.12210000  0.20390000  0.00000000
C        C    0.37790000  0.37790000  0.29610000  0.00000000
C        C    0.20390000  0.62210000  0.87790000  0.00000000
C        C    0.79610000  0.62210000  0.12210000  0.00000000
C        C    0.87790000  0.12210000  0.29610000  0.00000000
C        C    0.62210000  0.20390000  0.87790000  0.00000000
C        C    0.62210000  0.62210000  0.70390000  0.00000000
C        C    0.70390000  0.37790000  0.62210000  0.00000000
C        C    0.79610000  0.37790000  0.12210000  0.00000000
C        C    0.70390000  0.12210000  0.87790000  0.00000000
C        C    0.70390000  0.87790000  0.87790000  0.00000000
C        C    0.62210000  0.70390000  0.37790000  0.00000000
C        C    0.62210000  0.87790000  0.79610000  0.00000000
C        C    0.87790000  0.20390000  0.62210000  0.00000000
C        C    0.29610000  0.12210000  0.12210000  0.00000000
C        C    0.12210000  0.79610000  0.37790000  0.00000000
C        C    0.12210000  0.62210000  0.79610000  0.00000000
C        C    0.20390000  0.37790000  0.12210000  0.00000000
C        C    0.12210000  0.29610000  0.12210000  0.00000000
C        C    0.62210000  0.37790000  0.29610000  0.00000000
C        C    0.70390000  0.62210000  0.37790000  0.00000000
C        C    0.62210000  0.79610000  0.12210000  0.00000000
C        C    0.87790000  0.70390000  0.12210000  0.00000000
C        C    0.86628000  0.86628000  0.67270000  0.00000000
C        C    0.36628000  0.13372000  0.17270000  0.00000000
C        C    0.86628000  0.36628000  0.17270000  0.00000000
C        C    0.86628000  0.63372000  0.17270000  0.00000000
C        C    0.67270000  0.36628000  0.36628000  0.00000000
C        C    0.86628000  0.32730000  0.13372000  0.00000000
C        C    0.17270000  0.13372000  0.63372000  0.00000000
C        C    0.13372000  0.36628000  0.82730000  0.00000000
C        C    0.63372000  0.32730000  0.63372000  0.00000000
C        C    0.36628000  0.67270000  0.36628000  0.00000000
C        C    0.36628000  0.32730000  0.63372000  0.00000000
C        C    0.36628000  0.86628000  0.82730000  0.00000000
C        C    0.13372000  0.17270000  0.36628000  0.00000000
C        C    0.32730000  0.13372000  0.86628000  0.00000000
C        C    0.82730000  0.86628000  0.63372000  0.00000000
C        C    0.13372000  0.82730000  0.63372000  0.00000000
C        C    0.32730000  0.86628000  0.13372000  0.00000000
C        C    0.36628000  0.82730000  0.13372000  0.00000000
C        C    0.86628000  0.82730000  0.36628000  0.00000000
C        C    0.36628000  0.13372000  0.82730000  0.00000000
C        C    0.86628000  0.13372000  0.67270000  0.00000000
C        C    0.63372000  0.63372000  0.32730000  0.00000000
C        C    0.13372000  0.17270000  0.63372000  0.00000000
C        C    0.63372000  0.82730000  0.86628000  0.00000000
C        C    0.13372000  0.63372000  0.17270000  0.00000000
C        C    0.67270000  0.63372000  0.63372000  0.00000000
C        C    0.13372000  0.67270000  0.86628000  0.00000000
C        C    0.32730000  0.86628000  0.86628000  0.00000000
C        C    0.86628000  0.17270000  0.36628000  0.00000000
C        C    0.86628000  0.63372000  0.82730000  0.00000000
C        C    0.82730000  0.63372000  0.86628000  0.00000000
C        C    0.36628000  0.36628000  0.67270000  0.00000000
C        C    0.13372000  0.67270000  0.13372000  0.00000000
C        C    0.36628000  0.63372000  0.32730000  0.00000000
C        C    0.63372000  0.36628000  0.67270000  0.00000000
C        C    0.13372000  0.13372000  0.32730000  0.00000000
C        C    0.32730000  0.36628000  0.63372000  0.00000000
C        C    0.32730000  0.63372000  0.36628000  0.00000000
C        C    0.86628000  0.82730000  0.63372000  0.00000000
C        C    0.82730000  0.13372000  0.36628000  0.00000000
C        C    0.63372000  0.17270000  0.13372000  0.00000000
C        C    0.36628000  0.17270000  0.86628000  0.00000000
C        C    0.86628000  0.86628000  0.32730000  0.00000000
C        C    0.86628000  0.32730000  0.86628000  0.00000000
C        C    0.36628000  0.82730000  0.86628000  0.00000000
C        C    0.82730000  0.36628000  0.86628000  0.00000000
C        C    0.36628000  0.32730000  0.36628000  0.00000000
C        C    0.13372000  0.36628000  0.17270000  0.00000000
C        C    0.13372000  0.86628000  0.67270000  0.00000000
C        C    0.13372000  0.13372000  0.67270000  0.00000000
C        C    0.63372000  0.67270000  0.63372000  0.00000000
C        C    0.32730000  0.36628000  0.36628000  0.00000000
C        C    0.86628000  0.67270000  0.86628000  0.00000000
C        C    0.67270000  0.86628000  0.13372000  0.00000000
C        C    0.63372000  0.32730000  0.36628000  0.00000000
C        C    0.17270000  0.86628000  0.63372000  0.00000000
C        C    0.32730000  0.63372000  0.63372000  0.00000000
C        C    0.86628000  0.36628000  0.82730000  0.00000000
C        C    0.82730000  0.13372000  0.63372000  0.00000000
C        C    0.17270000  0.13372000  0.36628000  0.00000000
C        C    0.63372000  0.13372000  0.82730000  0.00000000
C        C    0.36628000  0.67270000  0.63372000  0.00000000
C        C    0.17270000  0.86628000  0.36628000  0.00000000
C        C    0.36628000  0.17270000  0.13372000  0.00000000
C        C    0.63372000  0.86628000  0.17270000  0.00000000
C        C    0.36628000  0.63372000  0.67270000  0.00000000
C        C    0.17270000  0.36628000  0.86628000  0.00000000
C        C    0.36628000  0.86628000  0.17270000  0.00000000
C        C    0.13372000  0.86628000  0.32730000  0.00000000
C        C    0.82730000  0.86628000  0.36628000  0.00000000
C        C    0.17270000  0.63372000  0.13372000  0.00000000
C        C    0.13372000  0.32730000  0.86628000  0.00000000
C        C    0.67270000  0.13372000  0.13372000  0.00000000
C        C    0.63372000  0.13372000  0.17270000  0.00000000
C        C    0.36628000  0.36628000  0.32730000  0.00000000
C        C    0.17270000  0.63372000  0.86628000  0.00000000
C        C    0.82730000  0.63372000  0.13372000  0.00000000
C        C    0.86628000  0.13372000  0.32730000  0.00000000
C        C    0.63372000  0.17270000  0.86628000  0.00000000
C        C    0.63372000  0.63372000  0.67270000  0.00000000
C        C    0.67270000  0.36628000  0.63372000  0.00000000
C        C    0.82730000  0.36628000  0.13372000  0.00000000
C        C    0.67270000  0.13372000  0.86628000  0.00000000
C        C    0.67270000  0.86628000  0.86628000  0.00000000
C        C    0.63372000  0.67270000  0.36628000  0.00000000
C        C    0.63372000  0.86628000  0.82730000  0.00000000
C        C    0.86628000  0.17270000  0.63372000  0.00000000
C        C    0.32730000  0.13372000  0.13372000  0.00000000
C        C    0.13372000  0.82730000  0.36628000  0.00000000
C        C    0.13372000  0.63372000  0.82730000  0.00000000
C        C    0.17270000  0.36628000  0.13372000  0.00000000
C        C    0.13372000  0.32730000  0.13372000  0.00000000
C        C    0.63372000  0.36628000  0.32730000  0.00000000
C        C    0.67270000  0.63372000  0.36628000  0.00000000
C        C    0.63372000  0.82730000  0.13372000  0.00000000
C        C    0.86628000  0.67270000  0.13372000  0.00000000
C        C    0.84060000  0.34060000  0.11950000  0.00000000
C        C    0.84060000  0.88050000  0.65940000  0.00000000
C        C    0.88050000  0.84060000  0.34060000  0.00000000
C        C    0.65940000  0.38050000  0.34060000  0.00000000
C        C    0.84060000  0.15940000  0.61950000  0.00000000
C        C    0.34060000  0.65940000  0.61950000  0.00000000
C        C    0.65940000  0.34060000  0.38050000  0.00000000
C        C    0.88050000  0.34060000  0.15940000  0.00000000
C        C    0.15940000  0.11950000  0.65940000  0.00000000
C        C    0.38050000  0.84060000  0.15940000  0.00000000
C        C    0.34060000  0.65940000  0.38050000  0.00000000
C        C    0.15940000  0.15940000  0.38050000  0.00000000
C        C    0.65940000  0.11950000  0.15940000  0.00000000
C        C    0.38050000  0.65940000  0.34060000  0.00000000
C        C    0.34060000  0.34060000  0.61950000  0.00000000
C        C    0.88050000  0.84060000  0.65940000  0.00000000
C        C    0.38050000  0.84060000  0.84060000  0.00000000
C        C    0.61950000  0.34060000  0.65940000  0.00000000
C        C    0.38050000  0.15940000  0.15940000  0.00000000
C        C    0.38050000  0.15940000  0.84060000  0.00000000
C        C    0.34060000  0.84060000  0.11950000  0.00000000
C        C    0.34060000  0.11950000  0.84060000  0.00000000
C        C    0.61950000  0.65940000  0.34060000  0.00000000
C        C    0.34060000  0.88050000  0.84060000  0.00000000
C        C    0.11950000  0.34060000  0.15940000  0.00000000
C        C    0.15940000  0.15940000  0.61950000  0.00000000
C        C    0.84060000  0.61950000  0.84060000  0.00000000
C        C    0.84060000  0.65940000  0.88050000  0.00000000
C        C    0.38050000  0.34060000  0.65940000  0.00000000
C        C    0.11950000  0.65940000  0.15940000  0.00000000
C        C    0.65940000  0.38050000  0.65940000  0.00000000
C        C    0.11950000  0.15940000  0.34060000  0.00000000
C        C    0.34060000  0.38050000  0.65940000  0.00000000
C        C    0.34060000  0.61950000  0.34060000  0.00000000
C        C    0.84060000  0.84060000  0.61950000  0.00000000
C        C    0.84060000  0.15940000  0.38050000  0.00000000
C        C    0.15940000  0.61950000  0.84060000  0.00000000
C        C    0.34060000  0.15940000  0.88050000  0.00000000
C        C    0.88050000  0.15940000  0.34060000  0.00000000
C        C    0.15940000  0.84060000  0.61950000  0.00000000
C        C    0.84060000  0.88050000  0.34060000  0.00000000
C        C    0.84060000  0.34060000  0.88050000  0.00000000
C        C    0.34060000  0.84060000  0.88050000  0.00000000
C        C    0.84060000  0.38050000  0.84060000  0.00000000
C        C    0.38050000  0.34060000  0.34060000  0.00000000
C        C    0.11950000  0.84060000  0.65940000  0.00000000
C        C    0.11950000  0.15940000  0.65940000  0.00000000
C        C    0.65940000  0.65940000  0.61950000  0.00000000
C        C    0.34060000  0.34060000  0.38050000  0.00000000
C        C    0.15940000  0.84060000  0.38050000  0.00000000
C        C    0.15940000  0.34060000  0.88050000  0.00000000
C        C    0.88050000  0.65940000  0.84060000  0.00000000
C        C    0.65940000  0.84060000  0.11950000  0.00000000
C        C    0.15940000  0.88050000  0.65940000  0.00000000
C        C    0.88050000  0.34060000  0.84060000  0.00000000
C        C    0.84060000  0.11950000  0.65940000  0.00000000
C        C    0.15940000  0.11950000  0.34060000  0.00000000
C        C    0.38050000  0.65940000  0.65940000  0.00000000
C        C    0.15940000  0.88050000  0.34060000  0.00000000
C        C    0.15940000  0.65940000  0.11950000  0.00000000
C        C    0.34060000  0.15940000  0.11950000  0.00000000
C        C    0.65940000  0.88050000  0.15940000  0.00000000
C        C    0.65940000  0.61950000  0.65940000  0.00000000
C        C    0.34060000  0.61950000  0.65940000  0.00000000
C        C    0.15940000  0.38050000  0.84060000  0.00000000
C        C    0.34060000  0.88050000  0.15940000  0.00000000
C        C    0.84060000  0.84060000  0.38050000  0.00000000
C        C    0.15940000  0.61950000  0.15940000  0.00000000
C        C    0.11950000  0.34060000  0.84060000  0.00000000
C        C    0.65940000  0.15940000  0.11950000  0.00000000
C        C    0.61950000  0.15940000  0.15940000  0.00000000
C        C    0.34060000  0.38050000  0.34060000  0.00000000
C        C    0.15940000  0.65940000  0.88050000  0.00000000
C        C    0.84060000  0.61950000  0.15940000  0.00000000
C        C    0.84060000  0.11950000  0.34060000  0.00000000
C        C    0.61950000  0.15940000  0.84060000  0.00000000
C        C    0.65940000  0.15940000  0.88050000  0.00000000
C        C    0.88050000  0.65940000  0.15940000  0.00000000
C        C    0.61950000  0.65940000  0.65940000  0.00000000
C        C    0.65940000  0.34060000  0.61950000  0.00000000
C        C    0.84060000  0.38050000  0.15940000  0.00000000
C        C    0.65940000  0.11950000  0.84060000  0.00000000
C        C    0.65940000  0.84060000  0.88050000  0.00000000
C        C    0.65940000  0.88050000  0.84060000  0.00000000
C        C    0.65940000  0.65940000  0.38050000  0.00000000
C        C    0.61950000  0.84060000  0.84060000  0.00000000
C        C    0.88050000  0.15940000  0.65940000  0.00000000
C        C    0.34060000  0.11950000  0.15940000  0.00000000
C        C    0.11950000  0.84060000  0.34060000  0.00000000
C        C    0.11950000  0.65940000  0.84060000  0.00000000
C        C    0.15940000  0.38050000  0.15940000  0.00000000
C        C    0.15940000  0.34060000  0.11950000  0.00000000
C        C    0.61950000  0.34060000  0.34060000  0.00000000
C        C    0.65940000  0.61950000  0.34060000  0.00000000
C        C    0.61950000  0.84060000  0.15940000  0.00000000
C        C    0.84060000  0.65940000  0.11950000  0.00000000
H        H    0.83250000  0.33250000  0.10060000  0.00000000
H        H    0.83250000  0.89940000  0.66750000  0.00000000
H        H    0.89940000  0.83250000  0.33250000  0.00000000
H        H    0.66750000  0.39940000  0.33250000  0.00000000
H        H    0.83250000  0.16750000  0.60060000  0.00000000
H        H    0.33250000  0.66750000  0.60060000  0.00000000
H        H    0.66750000  0.33250000  0.39940000  0.00000000
H        H    0.89940000  0.33250000  0.16750000  0.00000000
H        H    0.16750000  0.10060000  0.66750000  0.00000000
H        H    0.39940000  0.83250000  0.16750000  0.00000000
H        H    0.33250000  0.66750000  0.39940000  0.00000000
H        H    0.16750000  0.16750000  0.39940000  0.00000000
H        H    0.66750000  0.10060000  0.16750000  0.00000000
H        H    0.39940000  0.66750000  0.33250000  0.00000000
H        H    0.33250000  0.33250000  0.60060000  0.00000000
H        H    0.89940000  0.83250000  0.66750000  0.00000000
H        H    0.39940000  0.83250000  0.83250000  0.00000000
H        H    0.60060000  0.33250000  0.66750000  0.00000000
H        H    0.39940000  0.16750000  0.16750000  0.00000000
H        H    0.39940000  0.16750000  0.83250000  0.00000000
H        H    0.33250000  0.83250000  0.10060000  0.00000000
H        H    0.33250000  0.10060000  0.83250000  0.00000000
H        H    0.60060000  0.66750000  0.33250000  0.00000000
H        H    0.33250000  0.89940000  0.83250000  0.00000000
H        H    0.10060000  0.33250000  0.16750000  0.00000000
H        H    0.16750000  0.16750000  0.60060000  0.00000000
H        H    0.83250000  0.60060000  0.83250000  0.00000000
H        H    0.83250000  0.66750000  0.89940000  0.00000000
H        H    0.39940000  0.33250000  0.66750000  0.00000000
H        H    0.10060000  0.66750000  0.16750000  0.00000000
H        H    0.66750000  0.39940000  0.66750000  0.00000000
H        H    0.10060000  0.16750000  0.33250000  0.00000000
H        H    0.33250000  0.39940000  0.66750000  0.00000000
H        H    0.33250000  0.60060000  0.33250000  0.00000000
H        H    0.83250000  0.83250000  0.60060000  0.00000000
H        H    0.83250000  0.16750000  0.39940000  0.00000000
H        H    0.16750000  0.60060000  0.83250000  0.00000000
H        H    0.33250000  0.16750000  0.89940000  0.00000000
H        H    0.89940000  0.16750000  0.33250000  0.00000000
H        H    0.16750000  0.83250000  0.60060000  0.00000000
H        H    0.83250000  0.89940000  0.33250000  0.00000000
H        H    0.83250000  0.33250000  0.89940000  0.00000000
H        H    0.33250000  0.83250000  0.89940000  0.00000000
H        H    0.83250000  0.39940000  0.83250000  0.00000000
H        H    0.39940000  0.33250000  0.33250000  0.00000000
H        H    0.10060000  0.83250000  0.66750000  0.00000000
H        H    0.10060000  0.16750000  0.66750000  0.00000000
H        H    0.66750000  0.66750000  0.60060000  0.00000000
H        H    0.33250000  0.33250000  0.39940000  0.00000000
H        H    0.16750000  0.83250000  0.39940000  0.00000000
H        H    0.16750000  0.33250000  0.89940000  0.00000000
H        H    0.89940000  0.66750000  0.83250000  0.00000000
H        H    0.66750000  0.83250000  0.10060000  0.00000000
H        H    0.16750000  0.89940000  0.66750000  0.00000000
H        H    0.89940000  0.33250000  0.83250000  0.00000000
H        H    0.83250000  0.10060000  0.66750000  0.00000000
H        H    0.16750000  0.10060000  0.33250000  0.00000000
H        H    0.39940000  0.66750000  0.66750000  0.00000000
H        H    0.16750000  0.89940000  0.33250000  0.00000000
H        H    0.16750000  0.66750000  0.10060000  0.00000000
H        H    0.33250000  0.16750000  0.10060000  0.00000000
H        H    0.66750000  0.89940000  0.16750000  0.00000000
H        H    0.66750000  0.60060000  0.66750000  0.00000000
H        H    0.33250000  0.60060000  0.66750000  0.00000000
H        H    0.16750000  0.39940000  0.83250000  0.00000000
H        H    0.33250000  0.89940000  0.16750000  0.00000000
H        H    0.83250000  0.83250000  0.39940000  0.00000000
H        H    0.16750000  0.60060000  0.16750000  0.00000000
H        H    0.10060000  0.33250000  0.83250000  0.00000000
H        H    0.66750000  0.16750000  0.10060000  0.00000000
H        H    0.60060000  0.16750000  0.16750000  0.00000000
H        H    0.33250000  0.39940000  0.33250000  0.00000000
H        H    0.16750000  0.66750000  0.89940000  0.00000000
H        H    0.83250000  0.60060000  0.16750000  0.00000000
H        H    0.83250000  0.10060000  0.33250000  0.00000000
H        H    0.60060000  0.16750000  0.83250000  0.00000000
H        H    0.66750000  0.16750000  0.89940000  0.00000000
H        H    0.89940000  0.66750000  0.16750000  0.00000000
H        H    0.60060000  0.66750000  0.66750000  0.00000000
H        H    0.66750000  0.33250000  0.60060000  0.00000000
H        H    0.83250000  0.39940000  0.16750000  0.00000000
H        H    0.66750000  0.10060000  0.83250000  0.00000000
H        H    0.66750000  0.83250000  0.89940000  0.00000000
H        H    0.66750000  0.89940000  0.83250000  0.00000000
H        H    0.66750000  0.66750000  0.39940000  0.00000000
H        H    0.60060000  0.83250000  0.83250000  0.00000000
H        H    0.89940000  0.16750000  0.66750000  0.00000000
H        H    0.33250000  0.10060000  0.16750000  0.00000000
H        H    0.10060000  0.83250000  0.33250000  0.00000000
H        H    0.10060000  0.66750000  0.83250000  0.00000000
H        H    0.16750000  0.39940000  0.16750000  0.00000000
H        H    0.16750000  0.33250000  0.10060000  0.00000000
H        H    0.60060000  0.33250000  0.33250000  0.00000000
H        H    0.66750000  0.60060000  0.33250000  0.00000000
H        H    0.60060000  0.83250000  0.16750000  0.00000000
H        H    0.83250000  0.66750000  0.10060000  0.00000000
