data_ZIF-3

_cell_length_a  18.97010000
_cell_length_b  18.97010000
_cell_length_c  16.74000000
_cell_angle_alpha  90.00000000
_cell_angle_beta  90.00000000
_cell_angle_gamma  90.00000000


_symmetry_space_group_name_Hall ' P 1'
_symmetry_space_group_name_H-M  'P 1'
_symmetry_Int_Tables_number     1

loop_
_atom_site_label
_atom_site_type_symbol
_atom_site_fract_x
_atom_site_fract_y
_atom_site_fract_z
_atom_site_charge
Zn       Zn   0.10549000  0.32664000  0.32076000  0.00000000
Zn       Zn   0.82664000  0.39451000  0.17924000  0.00000000
Zn       Zn   0.89451000  0.67336000  0.67924000  0.00000000
Zn       Zn   0.82664000  0.39451000  0.82076000  0.00000000
Zn       Zn   0.39451000  0.82664000  0.82076000  0.00000000
Zn       Zn   0.89451000  0.67336000  0.32076000  0.00000000
Zn       Zn   0.67336000  0.89451000  0.67924000  0.00000000
Zn       Zn   0.39451000  0.82664000  0.17924000  0.00000000
Zn       Zn   0.17336000  0.60549000  0.82076000  0.00000000
Zn       Zn   0.32664000  0.10549000  0.67924000  0.00000000
Zn       Zn   0.10549000  0.32664000  0.67924000  0.00000000
Zn       Zn   0.17336000  0.60549000  0.17924000  0.00000000
Zn       Zn   0.60549000  0.17336000  0.17924000  0.00000000
Zn       Zn   0.60549000  0.17336000  0.82076000  0.00000000
Zn       Zn   0.32664000  0.10549000  0.32076000  0.00000000
Zn       Zn   0.67336000  0.89451000  0.32076000  0.00000000
C        C    0.78930000  0.78930000  0.67270000  0.00000000
C        C    0.28930000  0.71070000  0.82730000  0.00000000
C        C    0.21070000  0.21070000  0.67270000  0.00000000
C        C    0.28930000  0.71070000  0.17270000  0.00000000
C        C    0.71070000  0.28930000  0.17270000  0.00000000
C        C    0.71070000  0.28930000  0.82730000  0.00000000
C        C    0.21070000  0.21070000  0.32730000  0.00000000
C        C    0.78930000  0.78930000  0.32730000  0.00000000
H        H    0.76680000  0.76680000  0.63050000  0.00000000
H        H    0.26680000  0.73320000  0.86950000  0.00000000
H        H    0.23320000  0.23320000  0.63050000  0.00000000
H        H    0.26680000  0.73320000  0.13050000  0.00000000
H        H    0.73320000  0.26680000  0.13050000  0.00000000
H        H    0.73320000  0.26680000  0.86950000  0.00000000
H        H    0.23320000  0.23320000  0.36950000  0.00000000
H        H    0.76680000  0.76680000  0.36950000  0.00000000
C        C    0.13980000  0.19080000  0.23440000  0.00000000
C        C    0.69080000  0.36020000  0.26560000  0.00000000
C        C    0.86020000  0.80920000  0.76560000  0.00000000
C        C    0.69080000  0.36020000  0.73440000  0.00000000
C        C    0.36020000  0.69080000  0.73440000  0.00000000
C        C    0.86020000  0.80920000  0.23440000  0.00000000
C        C    0.80920000  0.86020000  0.76560000  0.00000000
C        C    0.36020000  0.69080000  0.26560000  0.00000000
C        C    0.30920000  0.63980000  0.73440000  0.00000000
C        C    0.19080000  0.13980000  0.76560000  0.00000000
C        C    0.13980000  0.19080000  0.76560000  0.00000000
C        C    0.30920000  0.63980000  0.26560000  0.00000000
C        C    0.63980000  0.30920000  0.26560000  0.00000000
C        C    0.63980000  0.30920000  0.73440000  0.00000000
C        C    0.19080000  0.13980000  0.23440000  0.00000000
C        C    0.80920000  0.86020000  0.23440000  0.00000000
H        H    0.10270000  0.19420000  0.19820000  0.00000000
H        H    0.69420000  0.39730000  0.30180000  0.00000000
H        H    0.89730000  0.80580000  0.80180000  0.00000000
H        H    0.69420000  0.39730000  0.69820000  0.00000000
H        H    0.39730000  0.69420000  0.69820000  0.00000000
H        H    0.89730000  0.80580000  0.19820000  0.00000000
H        H    0.80580000  0.89730000  0.80180000  0.00000000
H        H    0.39730000  0.69420000  0.30180000  0.00000000
H        H    0.30580000  0.60270000  0.69820000  0.00000000
H        H    0.19420000  0.10270000  0.80180000  0.00000000
H        H    0.10270000  0.19420000  0.80180000  0.00000000
H        H    0.30580000  0.60270000  0.30180000  0.00000000
H        H    0.60270000  0.30580000  0.30180000  0.00000000
H        H    0.60270000  0.30580000  0.69820000  0.00000000
H        H    0.19420000  0.10270000  0.19820000  0.00000000
H        H    0.80580000  0.89730000  0.19820000  0.00000000
C        C    0.13820000  0.46740000  0.24950000  0.00000000
C        C    0.96740000  0.36180000  0.25050000  0.00000000
C        C    0.86180000  0.53260000  0.75050000  0.00000000
C        C    0.96740000  0.36180000  0.74950000  0.00000000
C        C    0.36180000  0.96740000  0.74950000  0.00000000
C        C    0.86180000  0.53260000  0.24950000  0.00000000
C        C    0.53260000  0.86180000  0.75050000  0.00000000
C        C    0.36180000  0.96740000  0.25050000  0.00000000
C        C    0.03260000  0.63820000  0.74950000  0.00000000
C        C    0.46740000  0.13820000  0.75050000  0.00000000
C        C    0.13820000  0.46740000  0.75050000  0.00000000
C        C    0.03260000  0.63820000  0.25050000  0.00000000
C        C    0.63820000  0.03260000  0.25050000  0.00000000
C        C    0.63820000  0.03260000  0.74950000  0.00000000
C        C    0.46740000  0.13820000  0.24950000  0.00000000
C        C    0.53260000  0.86180000  0.24950000  0.00000000
H        H    0.10470000  0.48940000  0.28160000  0.00000000
H        H    0.98940000  0.39530000  0.21840000  0.00000000
H        H    0.89530000  0.51060000  0.71840000  0.00000000
H        H    0.98940000  0.39530000  0.78160000  0.00000000
H        H    0.39530000  0.98940000  0.78160000  0.00000000
H        H    0.89530000  0.51060000  0.28160000  0.00000000
H        H    0.51060000  0.89530000  0.71840000  0.00000000
H        H    0.39530000  0.98940000  0.21840000  0.00000000
H        H    0.01060000  0.60470000  0.78160000  0.00000000
H        H    0.48940000  0.10470000  0.71840000  0.00000000
H        H    0.10470000  0.48940000  0.71840000  0.00000000
H        H    0.01060000  0.60470000  0.21840000  0.00000000
H        H    0.60470000  0.01060000  0.21840000  0.00000000
H        H    0.60470000  0.01060000  0.78160000  0.00000000
H        H    0.48940000  0.10470000  0.28160000  0.00000000
H        H    0.51060000  0.89530000  0.28160000  0.00000000
C        C    0.19920000  0.39070000  0.19340000  0.00000000
C        C    0.89070000  0.30080000  0.30660000  0.00000000
C        C    0.80080000  0.60930000  0.80660000  0.00000000
C        C    0.89070000  0.30080000  0.69340000  0.00000000
C        C    0.30080000  0.89070000  0.69340000  0.00000000
C        C    0.80080000  0.60930000  0.19340000  0.00000000
C        C    0.60930000  0.80080000  0.80660000  0.00000000
C        C    0.30080000  0.89070000  0.30660000  0.00000000
C        C    0.10930000  0.69920000  0.69340000  0.00000000
C        C    0.39070000  0.19920000  0.80660000  0.00000000
C        C    0.19920000  0.39070000  0.80660000  0.00000000
C        C    0.10930000  0.69920000  0.30660000  0.00000000
C        C    0.69920000  0.10930000  0.30660000  0.00000000
C        C    0.69920000  0.10930000  0.69340000  0.00000000
C        C    0.39070000  0.19920000  0.19340000  0.00000000
C        C    0.60930000  0.80080000  0.19340000  0.00000000
H        H    0.21800000  0.34750000  0.17790000  0.00000000
H        H    0.84750000  0.28200000  0.32210000  0.00000000
H        H    0.78200000  0.65250000  0.82210000  0.00000000
H        H    0.84750000  0.28200000  0.67790000  0.00000000
H        H    0.28200000  0.84750000  0.67790000  0.00000000
H        H    0.78200000  0.65250000  0.17790000  0.00000000
H        H    0.65250000  0.78200000  0.82210000  0.00000000
H        H    0.28200000  0.84750000  0.32210000  0.00000000
H        H    0.15250000  0.71800000  0.67790000  0.00000000
H        H    0.34750000  0.21800000  0.82210000  0.00000000
H        H    0.21800000  0.34750000  0.82210000  0.00000000
H        H    0.15250000  0.71800000  0.32210000  0.00000000
H        H    0.71800000  0.15250000  0.32210000  0.00000000
H        H    0.71800000  0.15250000  0.67790000  0.00000000
H        H    0.34750000  0.21800000  0.17790000  0.00000000
H        H    0.65250000  0.78200000  0.17790000  0.00000000
C        C    0.18120000  0.39120000  0.45780000  0.00000000
C        C    0.89120000  0.31880000  0.04220000  0.00000000
C        C    0.81880000  0.60880000  0.54220000  0.00000000
C        C    0.89120000  0.31880000  0.95780000  0.00000000
C        C    0.31880000  0.89120000  0.95780000  0.00000000
C        C    0.81880000  0.60880000  0.45780000  0.00000000
C        C    0.60880000  0.81880000  0.54220000  0.00000000
C        C    0.31880000  0.89120000  0.04220000  0.00000000
C        C    0.10880000  0.68120000  0.95780000  0.00000000
C        C    0.39120000  0.18120000  0.54220000  0.00000000
C        C    0.18120000  0.39120000  0.54220000  0.00000000
C        C    0.10880000  0.68120000  0.04220000  0.00000000
C        C    0.68120000  0.10880000  0.04220000  0.00000000
C        C    0.68120000  0.10880000  0.95780000  0.00000000
C        C    0.39120000  0.18120000  0.45780000  0.00000000
C        C    0.60880000  0.81880000  0.45780000  0.00000000
H        H    0.21250000  0.41550000  0.42520000  0.00000000
H        H    0.91550000  0.28750000  0.07480000  0.00000000
H        H    0.78750000  0.58450000  0.57480000  0.00000000
H        H    0.91550000  0.28750000  0.92520000  0.00000000
H        H    0.28750000  0.91550000  0.92520000  0.00000000
H        H    0.78750000  0.58450000  0.42520000  0.00000000
H        H    0.58450000  0.78750000  0.57480000  0.00000000
H        H    0.28750000  0.91550000  0.07480000  0.00000000
H        H    0.08450000  0.71250000  0.92520000  0.00000000
H        H    0.41550000  0.21250000  0.57480000  0.00000000
H        H    0.21250000  0.41550000  0.57480000  0.00000000
H        H    0.08450000  0.71250000  0.07480000  0.00000000
H        H    0.71250000  0.08450000  0.07480000  0.00000000
H        H    0.71250000  0.08450000  0.92520000  0.00000000
H        H    0.41550000  0.21250000  0.42520000  0.00000000
H        H    0.58450000  0.78750000  0.42520000  0.00000000
C        C    0.82890000  0.40290000  0.00000000  0.00000000
C        C    0.90290000  0.67110000  0.50000000  0.00000000
C        C    0.40290000  0.82890000  0.00000000  0.00000000
C        C    0.09710000  0.32890000  0.50000000  0.00000000
C        C    0.17110000  0.59710000  0.00000000  0.00000000
C        C    0.59710000  0.17110000  0.00000000  0.00000000
C        C    0.32890000  0.09710000  0.50000000  0.00000000
C        C    0.67110000  0.90290000  0.50000000  0.00000000
H        H    0.80110000  0.44330000  0.00000000  0.00000000
H        H    0.94330000  0.69890000  0.50000000  0.00000000
H        H    0.44330000  0.80110000  0.00000000  0.00000000
H        H    0.05670000  0.30110000  0.50000000  0.00000000
H        H    0.19890000  0.55670000  0.00000000  0.00000000
H        H    0.55670000  0.19890000  0.00000000  0.00000000
H        H    0.30110000  0.05670000  0.50000000  0.00000000
H        H    0.69890000  0.94330000  0.50000000  0.00000000
C        C    0.95270000  0.28270000  0.33770000  0.00000000
C        C    0.78270000  0.54730000  0.16230000  0.00000000
C        C    0.04730000  0.71730000  0.66230000  0.00000000
C        C    0.78270000  0.54730000  0.83770000  0.00000000
C        C    0.54730000  0.78270000  0.83770000  0.00000000
C        C    0.04730000  0.71730000  0.33770000  0.00000000
C        C    0.71730000  0.04730000  0.66230000  0.00000000
C        C    0.54730000  0.78270000  0.16230000  0.00000000
C        C    0.21730000  0.45270000  0.83770000  0.00000000
C        C    0.28270000  0.95270000  0.66230000  0.00000000
C        C    0.95270000  0.28270000  0.66230000  0.00000000
C        C    0.21730000  0.45270000  0.16230000  0.00000000
C        C    0.45270000  0.21730000  0.16230000  0.00000000
C        C    0.45270000  0.21730000  0.83770000  0.00000000
C        C    0.28270000  0.95270000  0.33770000  0.00000000
C        C    0.71730000  0.04730000  0.33770000  0.00000000
H        H    0.96040000  0.24920000  0.37730000  0.00000000
H        H    0.74920000  0.53960000  0.12270000  0.00000000
H        H    0.03960000  0.75080000  0.62270000  0.00000000
H        H    0.74920000  0.53960000  0.87730000  0.00000000
H        H    0.53960000  0.74920000  0.87730000  0.00000000
H        H    0.03960000  0.75080000  0.37730000  0.00000000
H        H    0.75080000  0.03960000  0.62270000  0.00000000
H        H    0.53960000  0.74920000  0.12270000  0.00000000
H        H    0.25080000  0.46040000  0.87730000  0.00000000
H        H    0.24920000  0.96040000  0.62270000  0.00000000
H        H    0.96040000  0.24920000  0.62270000  0.00000000
H        H    0.25080000  0.46040000  0.12270000  0.00000000
H        H    0.46040000  0.25080000  0.12270000  0.00000000
H        H    0.46040000  0.25080000  0.87730000  0.00000000
H        H    0.24920000  0.96040000  0.37730000  0.00000000
H        H    0.75080000  0.03960000  0.37730000  0.00000000
N        N    0.15220000  0.23540000  0.29560000  0.00000000
N        N    0.73540000  0.34780000  0.20440000  0.00000000
N        N    0.84780000  0.76460000  0.70440000  0.00000000
N        N    0.73540000  0.34780000  0.79560000  0.00000000
N        N    0.34780000  0.73540000  0.79560000  0.00000000
N        N    0.84780000  0.76460000  0.29560000  0.00000000
N        N    0.76460000  0.84780000  0.70440000  0.00000000
N        N    0.34780000  0.73540000  0.20440000  0.00000000
N        N    0.26460000  0.65220000  0.79560000  0.00000000
N        N    0.23540000  0.15220000  0.70440000  0.00000000
N        N    0.15220000  0.23540000  0.70440000  0.00000000
N        N    0.26460000  0.65220000  0.20440000  0.00000000
N        N    0.65220000  0.26460000  0.20440000  0.00000000
N        N    0.65220000  0.26460000  0.79560000  0.00000000
N        N    0.23540000  0.15220000  0.29560000  0.00000000
N        N    0.76460000  0.84780000  0.29560000  0.00000000
N        N    0.14920000  0.39940000  0.25120000  0.00000000
N        N    0.89940000  0.35080000  0.24880000  0.00000000
N        N    0.85080000  0.60060000  0.74880000  0.00000000
N        N    0.89940000  0.35080000  0.75120000  0.00000000
N        N    0.35080000  0.89940000  0.75120000  0.00000000
N        N    0.85080000  0.60060000  0.25120000  0.00000000
N        N    0.60060000  0.85080000  0.74880000  0.00000000
N        N    0.35080000  0.89940000  0.24880000  0.00000000
N        N    0.10060000  0.64920000  0.75120000  0.00000000
N        N    0.39940000  0.14920000  0.74880000  0.00000000
N        N    0.14920000  0.39940000  0.74880000  0.00000000
N        N    0.10060000  0.64920000  0.24880000  0.00000000
N        N    0.64920000  0.10060000  0.24880000  0.00000000
N        N    0.64920000  0.10060000  0.75120000  0.00000000
N        N    0.39940000  0.14920000  0.25120000  0.00000000
N        N    0.60060000  0.85080000  0.25120000  0.00000000
N        N    0.12800000  0.35010000  0.43290000  0.00000000
N        N    0.85010000  0.37200000  0.06710000  0.00000000
N        N    0.87200000  0.64990000  0.56710000  0.00000000
N        N    0.85010000  0.37200000  0.93290000  0.00000000
N        N    0.37200000  0.85010000  0.93290000  0.00000000
N        N    0.87200000  0.64990000  0.43290000  0.00000000
N        N    0.64990000  0.87200000  0.56710000  0.00000000
N        N    0.37200000  0.85010000  0.06710000  0.00000000
N        N    0.14990000  0.62800000  0.93290000  0.00000000
N        N    0.35010000  0.12800000  0.56710000  0.00000000
N        N    0.12800000  0.35010000  0.56710000  0.00000000
N        N    0.14990000  0.62800000  0.06710000  0.00000000
N        N    0.62800000  0.14990000  0.06710000  0.00000000
N        N    0.62800000  0.14990000  0.93290000  0.00000000
N        N    0.35010000  0.12800000  0.43290000  0.00000000
N        N    0.64990000  0.87200000  0.43290000  0.00000000
N        N    0.00210000  0.32210000  0.30080000  0.00000000
N        N    0.82210000  0.49790000  0.19920000  0.00000000
N        N    0.99790000  0.67790000  0.69920000  0.00000000
N        N    0.82210000  0.49790000  0.80080000  0.00000000
N        N    0.49790000  0.82210000  0.80080000  0.00000000
N        N    0.99790000  0.67790000  0.30080000  0.00000000
N        N    0.67790000  0.99790000  0.69920000  0.00000000
N        N    0.49790000  0.82210000  0.19920000  0.00000000
N        N    0.17790000  0.50210000  0.80080000  0.00000000
N        N    0.32210000  0.00210000  0.69920000  0.00000000
N        N    0.00210000  0.32210000  0.69920000  0.00000000
N        N    0.17790000  0.50210000  0.19920000  0.00000000
N        N    0.50210000  0.17790000  0.19920000  0.00000000
N        N    0.50210000  0.17790000  0.80080000  0.00000000
N        N    0.32210000  0.00210000  0.30080000  0.00000000
N        N    0.67790000  0.99790000  0.30080000  0.00000000
