data_ZIF-97

_cell_length_a  24.62274768
_cell_length_b  24.62274768
_cell_length_c  24.62274768
_cell_angle_alpha  109.47122063
_cell_angle_beta  109.47122063
_cell_angle_gamma  109.47122063


_symmetry_space_group_name_Hall ' P 1'
_symmetry_space_group_name_H-M  'P 1'
_symmetry_Int_Tables_number     1

loop_
_atom_site_label
_atom_site_type_symbol
_atom_site_fract_x
_atom_site_fract_y
_atom_site_fract_z
_atom_site_charge
O        O    0.15672000  0.51836000  0.45686000  0.00000000
O        O    0.84328000  0.30014000  0.36164000  0.00000000
O        O    0.69986000  0.54314000  0.06150000  0.00000000
O        O    0.36164000  0.51836000  0.06150000  0.00000000
O        O    0.51836000  0.06150000  0.36164000  0.00000000
O        O    0.48164000  0.63836000  0.93850000  0.00000000
O        O    0.06150000  0.69986000  0.54314000  0.00000000
O        O    0.30014000  0.93850000  0.45686000  0.00000000
O        O    0.48164000  0.84328000  0.54314000  0.00000000
O        O    0.54314000  0.48164000  0.84328000  0.00000000
O        O    0.63836000  0.93850000  0.48164000  0.00000000
O        O    0.45686000  0.30014000  0.93850000  0.00000000
O        O    0.51836000  0.45686000  0.15672000  0.00000000
O        O    0.15672000  0.63836000  0.69986000  0.00000000
O        O    0.84328000  0.54314000  0.48164000  0.00000000
O        O    0.93850000  0.48164000  0.63836000  0.00000000
O        O    0.06150000  0.36164000  0.51836000  0.00000000
O        O    0.63836000  0.69986000  0.15672000  0.00000000
O        O    0.93850000  0.45686000  0.30014000  0.00000000
O        O    0.36164000  0.84328000  0.30014000  0.00000000
O        O    0.54314000  0.06150000  0.69986000  0.00000000
O        O    0.45686000  0.15672000  0.51836000  0.00000000
O        O    0.30014000  0.36164000  0.84328000  0.00000000
O        O    0.69986000  0.15672000  0.63836000  0.00000000
O        O    0.62412000  0.74391000  0.51177000  0.00000000
O        O    0.37588000  0.88765000  0.11979000  0.00000000
O        O    0.11235000  0.48823000  0.23214000  0.00000000
O        O    0.11979000  0.74391000  0.23214000  0.00000000
O        O    0.74391000  0.23214000  0.11979000  0.00000000
O        O    0.25609000  0.88021000  0.76786000  0.00000000
O        O    0.23214000  0.11235000  0.48823000  0.00000000
O        O    0.88765000  0.76786000  0.51177000  0.00000000
O        O    0.25609000  0.37588000  0.48823000  0.00000000
O        O    0.48823000  0.25609000  0.37588000  0.00000000
O        O    0.88021000  0.76786000  0.25609000  0.00000000
O        O    0.51177000  0.88765000  0.76786000  0.00000000
O        O    0.74391000  0.51177000  0.62412000  0.00000000
O        O    0.62412000  0.88021000  0.11235000  0.00000000
O        O    0.37588000  0.48823000  0.25609000  0.00000000
O        O    0.76786000  0.25609000  0.88021000  0.00000000
O        O    0.23214000  0.11979000  0.74391000  0.00000000
O        O    0.88021000  0.11235000  0.62412000  0.00000000
O        O    0.76786000  0.51177000  0.88765000  0.00000000
O        O    0.11979000  0.37588000  0.88765000  0.00000000
O        O    0.48823000  0.23214000  0.11235000  0.00000000
O        O    0.51177000  0.62412000  0.74391000  0.00000000
O        O    0.88765000  0.11979000  0.37588000  0.00000000
O        O    0.11235000  0.62412000  0.88021000  0.00000000
C        C    0.25216000  0.63451000  0.37993000  0.00000000
C        C    0.74784000  0.12777000  0.38235000  0.00000000
C        C    0.87223000  0.62007000  0.25458000  0.00000000
C        C    0.38235000  0.63451000  0.25458000  0.00000000
C        C    0.63451000  0.25458000  0.38235000  0.00000000
C        C    0.36549000  0.61765000  0.74542000  0.00000000
C        C    0.25458000  0.87223000  0.62007000  0.00000000
C        C    0.12777000  0.74542000  0.37993000  0.00000000
C        C    0.36549000  0.74784000  0.62007000  0.00000000
C        C    0.62007000  0.36549000  0.74784000  0.00000000
C        C    0.61765000  0.74542000  0.36549000  0.00000000
C        C    0.37993000  0.12777000  0.74542000  0.00000000
C        C    0.63451000  0.37993000  0.25216000  0.00000000
C        C    0.25216000  0.61765000  0.87223000  0.00000000
C        C    0.74784000  0.62007000  0.36549000  0.00000000
C        C    0.74542000  0.36549000  0.61765000  0.00000000
C        C    0.25458000  0.38235000  0.63451000  0.00000000
C        C    0.61765000  0.87223000  0.25216000  0.00000000
C        C    0.74542000  0.37993000  0.12777000  0.00000000
C        C    0.38235000  0.74784000  0.12777000  0.00000000
C        C    0.62007000  0.25458000  0.87223000  0.00000000
C        C    0.37993000  0.25216000  0.63451000  0.00000000
C        C    0.12777000  0.38235000  0.74784000  0.00000000
C        C    0.87223000  0.25216000  0.61765000  0.00000000
C        C    0.20917000  0.59785000  0.43134000  0.00000000
C        C    0.79083000  0.22217000  0.38868000  0.00000000
C        C    0.77783000  0.56866000  0.16651000  0.00000000
C        C    0.38868000  0.59785000  0.16651000  0.00000000
C        C    0.59785000  0.16651000  0.38868000  0.00000000
C        C    0.40215000  0.61132000  0.83349000  0.00000000
C        C    0.16651000  0.77783000  0.56866000  0.00000000
C        C    0.22217000  0.83349000  0.43134000  0.00000000
C        C    0.40215000  0.79083000  0.56866000  0.00000000
C        C    0.56866000  0.40215000  0.79083000  0.00000000
C        C    0.61132000  0.83349000  0.40215000  0.00000000
C        C    0.43134000  0.22217000  0.83349000  0.00000000
C        C    0.59785000  0.43134000  0.20917000  0.00000000
C        C    0.20917000  0.61132000  0.77783000  0.00000000
C        C    0.79083000  0.56866000  0.40215000  0.00000000
C        C    0.83349000  0.40215000  0.61132000  0.00000000
C        C    0.16651000  0.38868000  0.59785000  0.00000000
C        C    0.61132000  0.77783000  0.20917000  0.00000000
C        C    0.83349000  0.43134000  0.22217000  0.00000000
C        C    0.38868000  0.79083000  0.22217000  0.00000000
C        C    0.56866000  0.16651000  0.77783000  0.00000000
C        C    0.43134000  0.20917000  0.59785000  0.00000000
C        C    0.22217000  0.38868000  0.79083000  0.00000000
C        C    0.77783000  0.20917000  0.61132000  0.00000000
C        C    0.20149000  0.58585000  0.48470000  0.00000000
C        C    0.79851000  0.28321000  0.38436000  0.00000000
C        C    0.71679000  0.51530000  0.10115000  0.00000000
C        C    0.38436000  0.58585000  0.10115000  0.00000000
C        C    0.58585000  0.10115000  0.38436000  0.00000000
C        C    0.41415000  0.61564000  0.89885000  0.00000000
C        C    0.10115000  0.71679000  0.51530000  0.00000000
C        C    0.28321000  0.89885000  0.48470000  0.00000000
C        C    0.41415000  0.79851000  0.51530000  0.00000000
C        C    0.51530000  0.41415000  0.79851000  0.00000000
C        C    0.61564000  0.89885000  0.41415000  0.00000000
C        C    0.48470000  0.28321000  0.89885000  0.00000000
C        C    0.58585000  0.48470000  0.20149000  0.00000000
C        C    0.20149000  0.61564000  0.71679000  0.00000000
C        C    0.79851000  0.51530000  0.41415000  0.00000000
C        C    0.89885000  0.41415000  0.61564000  0.00000000
C        C    0.10115000  0.38436000  0.58585000  0.00000000
C        C    0.61564000  0.71679000  0.20149000  0.00000000
C        C    0.89885000  0.48470000  0.28321000  0.00000000
C        C    0.38436000  0.79851000  0.28321000  0.00000000
C        C    0.51530000  0.10115000  0.71679000  0.00000000
C        C    0.48470000  0.20149000  0.58585000  0.00000000
C        C    0.28321000  0.38436000  0.79851000  0.00000000
C        C    0.71679000  0.20149000  0.61564000  0.00000000
C        C    0.16094000  0.58077000  0.36601000  0.00000000
C        C    0.83906000  0.20507000  0.41983000  0.00000000
C        C    0.79493000  0.63399000  0.21476000  0.00000000
C        C    0.41983000  0.58077000  0.21476000  0.00000000
C        C    0.58077000  0.21476000  0.41983000  0.00000000
C        C    0.41923000  0.58017000  0.78524000  0.00000000
C        C    0.21476000  0.79493000  0.63399000  0.00000000
C        C    0.20507000  0.78524000  0.36601000  0.00000000
C        C    0.41923000  0.83906000  0.63399000  0.00000000
C        C    0.63399000  0.41923000  0.83906000  0.00000000
C        C    0.58017000  0.78524000  0.41923000  0.00000000
C        C    0.36601000  0.20507000  0.78524000  0.00000000
C        C    0.58077000  0.36601000  0.16094000  0.00000000
C        C    0.16094000  0.58017000  0.79493000  0.00000000
C        C    0.83906000  0.63399000  0.41923000  0.00000000
C        C    0.78524000  0.41923000  0.58017000  0.00000000
C        C    0.21476000  0.41983000  0.58077000  0.00000000
C        C    0.58017000  0.79493000  0.16094000  0.00000000
C        C    0.78524000  0.36601000  0.20507000  0.00000000
C        C    0.41983000  0.83906000  0.20507000  0.00000000
C        C    0.63399000  0.21476000  0.79493000  0.00000000
C        C    0.36601000  0.16094000  0.58077000  0.00000000
C        C    0.20507000  0.41983000  0.83906000  0.00000000
C        C    0.79493000  0.16094000  0.58017000  0.00000000
C        C    0.09103000  0.57501000  0.36544000  0.00000000
C        C    0.90897000  0.27441000  0.48398000  0.00000000
C        C    0.72559000  0.63456000  0.20957000  0.00000000
C        C    0.48398000  0.57501000  0.20957000  0.00000000
C        C    0.57501000  0.20957000  0.48398000  0.00000000
C        C    0.42499000  0.51602000  0.79043000  0.00000000
C        C    0.20957000  0.72559000  0.63456000  0.00000000
C        C    0.27441000  0.79043000  0.36544000  0.00000000
C        C    0.42499000  0.90897000  0.63456000  0.00000000
C        C    0.63456000  0.42499000  0.90897000  0.00000000
C        C    0.51602000  0.79043000  0.42499000  0.00000000
C        C    0.36544000  0.27441000  0.79043000  0.00000000
C        C    0.57501000  0.36544000  0.09103000  0.00000000
C        C    0.09103000  0.51602000  0.72559000  0.00000000
C        C    0.90897000  0.63456000  0.42499000  0.00000000
C        C    0.79043000  0.42499000  0.51602000  0.00000000
C        C    0.20957000  0.48398000  0.57501000  0.00000000
C        C    0.51602000  0.72559000  0.09103000  0.00000000
C        C    0.79043000  0.36544000  0.27441000  0.00000000
C        C    0.48398000  0.90897000  0.27441000  0.00000000
C        C    0.63456000  0.20957000  0.72559000  0.00000000
C        C    0.36544000  0.09103000  0.57501000  0.00000000
C        C    0.27441000  0.48398000  0.90897000  0.00000000
C        C    0.72559000  0.09103000  0.51602000  0.00000000
C        C    0.41495000  0.64423000  0.41612000  0.00000000
C        C    0.58505000  0.00117000  0.22928000  0.00000000
C        C    0.99883000  0.58388000  0.22811000  0.00000000
C        C    0.22928000  0.64423000  0.22811000  0.00000000
C        C    0.64423000  0.22811000  0.22928000  0.00000000
C        C    0.35577000  0.77072000  0.77189000  0.00000000
C        C    0.22811000  0.99883000  0.58388000  0.00000000
C        C    0.00117000  0.77189000  0.41612000  0.00000000
C        C    0.35577000  0.58505000  0.58388000  0.00000000
C        C    0.58388000  0.35577000  0.58505000  0.00000000
C        C    0.77072000  0.77189000  0.35577000  0.00000000
C        C    0.41612000  0.00117000  0.77189000  0.00000000
C        C    0.64423000  0.41612000  0.41495000  0.00000000
C        C    0.41495000  0.77072000  0.99883000  0.00000000
C        C    0.58505000  0.58388000  0.35577000  0.00000000
C        C    0.77189000  0.35577000  0.77072000  0.00000000
C        C    0.22811000  0.22928000  0.64423000  0.00000000
C        C    0.77072000  0.99883000  0.41495000  0.00000000
C        C    0.77189000  0.41612000  0.00117000  0.00000000
C        C    0.22928000  0.58505000  0.00117000  0.00000000
C        C    0.58388000  0.22811000  0.99883000  0.00000000
C        C    0.41612000  0.41495000  0.64423000  0.00000000
C        C    0.00117000  0.22928000  0.58505000  0.00000000
C        C    0.99883000  0.41495000  0.77072000  0.00000000
C        C    0.47946000  0.67543000  0.51699000  0.00000000
C        C    0.52054000  0.03753000  0.19597000  0.00000000
C        C    0.96247000  0.48301000  0.15844000  0.00000000
C        C    0.19597000  0.67543000  0.15844000  0.00000000
C        C    0.67543000  0.15844000  0.19597000  0.00000000
C        C    0.32457000  0.80403000  0.84156000  0.00000000
C        C    0.15844000  0.96247000  0.48301000  0.00000000
C        C    0.03753000  0.84156000  0.51699000  0.00000000
C        C    0.32457000  0.52054000  0.48301000  0.00000000
C        C    0.48301000  0.32457000  0.52054000  0.00000000
C        C    0.80403000  0.84156000  0.32457000  0.00000000
C        C    0.51699000  0.03753000  0.84156000  0.00000000
C        C    0.67543000  0.51699000  0.47946000  0.00000000
C        C    0.47946000  0.80403000  0.96247000  0.00000000
C        C    0.52054000  0.48301000  0.32457000  0.00000000
C        C    0.84156000  0.32457000  0.80403000  0.00000000
C        C    0.15844000  0.19597000  0.67543000  0.00000000
C        C    0.80403000  0.96247000  0.47946000  0.00000000
C        C    0.84156000  0.51699000  0.03753000  0.00000000
C        C    0.19597000  0.52054000  0.03753000  0.00000000
C        C    0.48301000  0.15844000  0.96247000  0.00000000
C        C    0.51699000  0.47946000  0.67543000  0.00000000
C        C    0.03753000  0.19597000  0.52054000  0.00000000
C        C    0.96247000  0.47946000  0.80403000  0.00000000
C        C    0.50537000  0.69431000  0.58858000  0.00000000
C        C    0.49463000  0.08321000  0.18894000  0.00000000
C        C    0.91679000  0.41142000  0.10573000  0.00000000
C        C    0.18894000  0.69431000  0.10573000  0.00000000
C        C    0.69431000  0.10573000  0.18894000  0.00000000
C        C    0.30569000  0.81106000  0.89427000  0.00000000
C        C    0.10573000  0.91679000  0.41142000  0.00000000
C        C    0.08321000  0.89427000  0.58858000  0.00000000
C        C    0.30569000  0.49463000  0.41142000  0.00000000
C        C    0.41142000  0.30569000  0.49463000  0.00000000
C        C    0.81106000  0.89427000  0.30569000  0.00000000
C        C    0.58858000  0.08321000  0.89427000  0.00000000
C        C    0.69431000  0.58858000  0.50537000  0.00000000
C        C    0.50537000  0.81106000  0.91679000  0.00000000
C        C    0.49463000  0.41142000  0.30569000  0.00000000
C        C    0.89427000  0.30569000  0.81106000  0.00000000
C        C    0.10573000  0.18894000  0.69431000  0.00000000
C        C    0.81106000  0.91679000  0.50537000  0.00000000
C        C    0.89427000  0.58858000  0.08321000  0.00000000
C        C    0.18894000  0.49463000  0.08321000  0.00000000
C        C    0.41142000  0.10573000  0.91679000  0.00000000
C        C    0.58858000  0.50537000  0.69431000  0.00000000
C        C    0.08321000  0.18894000  0.49463000  0.00000000
C        C    0.91679000  0.50537000  0.81106000  0.00000000
C        C    0.51428000  0.67341000  0.48343000  0.00000000
C        C    0.48572000  0.96915000  0.15913000  0.00000000
C        C    0.03085000  0.51657000  0.18998000  0.00000000
C        C    0.15913000  0.67341000  0.18998000  0.00000000
C        C    0.67341000  0.18998000  0.15913000  0.00000000
C        C    0.32659000  0.84087000  0.81002000  0.00000000
C        C    0.18998000  0.03085000  0.51657000  0.00000000
C        C    0.96915000  0.81002000  0.48343000  0.00000000
C        C    0.32659000  0.48572000  0.51657000  0.00000000
C        C    0.51657000  0.32659000  0.48572000  0.00000000
C        C    0.84087000  0.81002000  0.32659000  0.00000000
C        C    0.48343000  0.96915000  0.81002000  0.00000000
C        C    0.67341000  0.48343000  0.51428000  0.00000000
C        C    0.51428000  0.84087000  0.03085000  0.00000000
C        C    0.48572000  0.51657000  0.32659000  0.00000000
C        C    0.81002000  0.32659000  0.84087000  0.00000000
C        C    0.18998000  0.15913000  0.67341000  0.00000000
C        C    0.84087000  0.03085000  0.51428000  0.00000000
C        C    0.81002000  0.48343000  0.96915000  0.00000000
C        C    0.15913000  0.48572000  0.96915000  0.00000000
C        C    0.51657000  0.18998000  0.03085000  0.00000000
C        C    0.48343000  0.51428000  0.67341000  0.00000000
C        C    0.96915000  0.15913000  0.48572000  0.00000000
C        C    0.03085000  0.51428000  0.84087000  0.00000000
C        C    0.58459000  0.68706000  0.51061000  0.00000000
C        C    0.41541000  0.92602000  0.10247000  0.00000000
C        C    0.07398000  0.48939000  0.17645000  0.00000000
C        C    0.10247000  0.68706000  0.17645000  0.00000000
C        C    0.68706000  0.17645000  0.10247000  0.00000000
C        C    0.31294000  0.89753000  0.82355000  0.00000000
C        C    0.17645000  0.07398000  0.48939000  0.00000000
C        C    0.92602000  0.82355000  0.51061000  0.00000000
C        C    0.31294000  0.41541000  0.48939000  0.00000000
C        C    0.48939000  0.31294000  0.41541000  0.00000000
C        C    0.89753000  0.82355000  0.31294000  0.00000000
C        C    0.51061000  0.92602000  0.82355000  0.00000000
C        C    0.68706000  0.51061000  0.58459000  0.00000000
C        C    0.58459000  0.89753000  0.07398000  0.00000000
C        C    0.41541000  0.48939000  0.31294000  0.00000000
C        C    0.82355000  0.31294000  0.89753000  0.00000000
C        C    0.17645000  0.10247000  0.68706000  0.00000000
C        C    0.89753000  0.07398000  0.58459000  0.00000000
C        C    0.82355000  0.51061000  0.92602000  0.00000000
C        C    0.10247000  0.41541000  0.92602000  0.00000000
C        C    0.48939000  0.17645000  0.07398000  0.00000000
C        C    0.51061000  0.58459000  0.68706000  0.00000000
C        C    0.92602000  0.10247000  0.41541000  0.00000000
C        C    0.07398000  0.58459000  0.89753000  0.00000000
N        N    0.26667000  0.63600000  0.44499000  0.00000000
N        N    0.73333000  0.17832000  0.36933000  0.00000000
N        N    0.82168000  0.55501000  0.19101000  0.00000000
N        N    0.36933000  0.63600000  0.19101000  0.00000000
N        N    0.63600000  0.19101000  0.36933000  0.00000000
N        N    0.36400000  0.63067000  0.80899000  0.00000000
N        N    0.19101000  0.82168000  0.55501000  0.00000000
N        N    0.17832000  0.80899000  0.44499000  0.00000000
N        N    0.36400000  0.73333000  0.55501000  0.00000000
N        N    0.55501000  0.36400000  0.73333000  0.00000000
N        N    0.63067000  0.80899000  0.36400000  0.00000000
N        N    0.44499000  0.17832000  0.80899000  0.00000000
N        N    0.63600000  0.44499000  0.26667000  0.00000000
N        N    0.26667000  0.63067000  0.82168000  0.00000000
N        N    0.73333000  0.55501000  0.36400000  0.00000000
N        N    0.80899000  0.36400000  0.63067000  0.00000000
N        N    0.19101000  0.36933000  0.63600000  0.00000000
N        N    0.63067000  0.82168000  0.26667000  0.00000000
N        N    0.80899000  0.44499000  0.17832000  0.00000000
N        N    0.36933000  0.73333000  0.17832000  0.00000000
N        N    0.55501000  0.19101000  0.82168000  0.00000000
N        N    0.44499000  0.26667000  0.63600000  0.00000000
N        N    0.17832000  0.36933000  0.73333000  0.00000000
N        N    0.82168000  0.26667000  0.63067000  0.00000000
N        N    0.18778000  0.61857000  0.34799000  0.00000000
N        N    0.81222000  0.16021000  0.43079000  0.00000000
N        N    0.83979000  0.65201000  0.27058000  0.00000000
N        N    0.43079000  0.61857000  0.27058000  0.00000000
N        N    0.61857000  0.27058000  0.43079000  0.00000000
N        N    0.38143000  0.56921000  0.72942000  0.00000000
N        N    0.27058000  0.83979000  0.65201000  0.00000000
N        N    0.16021000  0.72942000  0.34799000  0.00000000
N        N    0.38143000  0.81222000  0.65201000  0.00000000
N        N    0.65201000  0.38143000  0.81222000  0.00000000
N        N    0.56921000  0.72942000  0.38143000  0.00000000
N        N    0.34799000  0.16021000  0.72942000  0.00000000
N        N    0.61857000  0.34799000  0.18778000  0.00000000
N        N    0.18778000  0.56921000  0.83979000  0.00000000
N        N    0.81222000  0.65201000  0.38143000  0.00000000
N        N    0.72942000  0.38143000  0.56921000  0.00000000
N        N    0.27058000  0.43079000  0.61857000  0.00000000
N        N    0.56921000  0.83979000  0.18778000  0.00000000
N        N    0.72942000  0.34799000  0.16021000  0.00000000
N        N    0.43079000  0.81222000  0.16021000  0.00000000
N        N    0.65201000  0.27058000  0.83979000  0.00000000
N        N    0.34799000  0.18778000  0.61857000  0.00000000
N        N    0.16021000  0.43079000  0.81222000  0.00000000
N        N    0.83979000  0.18778000  0.56921000  0.00000000
N        N    0.47392000  0.65452000  0.42004000  0.00000000
N        N    0.52608000  0.94612000  0.18060000  0.00000000
N        N    0.05388000  0.57996000  0.23448000  0.00000000
N        N    0.18060000  0.65452000  0.23448000  0.00000000
N        N    0.65452000  0.23448000  0.18060000  0.00000000
N        N    0.34548000  0.81940000  0.76552000  0.00000000
N        N    0.23448000  0.05388000  0.57996000  0.00000000
N        N    0.94612000  0.76552000  0.42004000  0.00000000
N        N    0.34548000  0.52608000  0.57996000  0.00000000
N        N    0.57996000  0.34548000  0.52608000  0.00000000
N        N    0.81940000  0.76552000  0.34548000  0.00000000
N        N    0.42004000  0.94612000  0.76552000  0.00000000
N        N    0.65452000  0.42004000  0.47392000  0.00000000
N        N    0.47392000  0.81940000  0.05388000  0.00000000
N        N    0.52608000  0.57996000  0.34548000  0.00000000
N        N    0.76552000  0.34548000  0.81940000  0.00000000
N        N    0.23448000  0.18060000  0.65452000  0.00000000
N        N    0.81940000  0.05388000  0.47392000  0.00000000
N        N    0.76552000  0.42004000  0.94612000  0.00000000
N        N    0.18060000  0.52608000  0.94612000  0.00000000
N        N    0.57996000  0.23448000  0.05388000  0.00000000
N        N    0.42004000  0.47392000  0.65452000  0.00000000
N        N    0.94612000  0.18060000  0.52608000  0.00000000
N        N    0.05388000  0.47392000  0.81940000  0.00000000
N        N    0.41698000  0.65711000  0.47481000  0.00000000
N        N    0.58302000  0.05783000  0.24013000  0.00000000
N        N    0.94217000  0.52519000  0.18230000  0.00000000
N        N    0.24013000  0.65711000  0.18230000  0.00000000
N        N    0.65711000  0.18230000  0.24013000  0.00000000
N        N    0.34289000  0.75987000  0.81770000  0.00000000
N        N    0.18230000  0.94217000  0.52519000  0.00000000
N        N    0.05783000  0.81770000  0.47481000  0.00000000
N        N    0.34289000  0.58302000  0.52519000  0.00000000
N        N    0.52519000  0.34289000  0.58302000  0.00000000
N        N    0.75987000  0.81770000  0.34289000  0.00000000
N        N    0.47481000  0.05783000  0.81770000  0.00000000
N        N    0.65711000  0.47481000  0.41698000  0.00000000
N        N    0.41698000  0.75987000  0.94217000  0.00000000
N        N    0.58302000  0.52519000  0.34289000  0.00000000
N        N    0.81770000  0.34289000  0.75987000  0.00000000
N        N    0.18230000  0.24013000  0.65711000  0.00000000
N        N    0.75987000  0.94217000  0.41698000  0.00000000
N        N    0.81770000  0.47481000  0.05783000  0.00000000
N        N    0.24013000  0.58302000  0.05783000  0.00000000
N        N    0.52519000  0.18230000  0.94217000  0.00000000
N        N    0.47481000  0.41698000  0.65711000  0.00000000
N        N    0.05783000  0.24013000  0.58302000  0.00000000
N        N    0.94217000  0.41698000  0.75987000  0.00000000
H        H    0.15292000  0.50856000  0.49668000  0.00000000
H        H    0.84708000  0.34376000  0.35564000  0.00000000
H        H    0.65624000  0.50332000  0.01188000  0.00000000
H        H    0.35564000  0.50856000  0.01188000  0.00000000
H        H    0.50856000  0.01188000  0.35564000  0.00000000
H        H    0.49144000  0.64436000  0.98812000  0.00000000
H        H    0.01188000  0.65624000  0.50332000  0.00000000
H        H    0.34376000  0.98812000  0.49668000  0.00000000
H        H    0.49144000  0.84708000  0.50332000  0.00000000
H        H    0.50332000  0.49144000  0.84708000  0.00000000
H        H    0.64436000  0.98812000  0.49144000  0.00000000
H        H    0.49668000  0.34376000  0.98812000  0.00000000
H        H    0.50856000  0.49668000  0.15292000  0.00000000
H        H    0.15292000  0.64436000  0.65624000  0.00000000
H        H    0.84708000  0.50332000  0.49144000  0.00000000
H        H    0.98812000  0.49144000  0.64436000  0.00000000
H        H    0.01188000  0.35564000  0.50856000  0.00000000
H        H    0.64436000  0.65624000  0.15292000  0.00000000
H        H    0.98812000  0.49668000  0.34376000  0.00000000
H        H    0.35564000  0.84708000  0.34376000  0.00000000
H        H    0.50332000  0.01188000  0.65624000  0.00000000
H        H    0.49668000  0.15292000  0.50856000  0.00000000
H        H    0.34376000  0.35564000  0.84708000  0.00000000
H        H    0.65624000  0.15292000  0.64436000  0.00000000
H        H    0.65997000  0.78435000  0.56412000  0.00000000
H        H    0.34003000  0.90415000  0.12438000  0.00000000
H        H    0.09585000  0.43588000  0.22023000  0.00000000
H        H    0.12438000  0.78435000  0.22023000  0.00000000
H        H    0.78435000  0.22023000  0.12438000  0.00000000
H        H    0.21565000  0.87562000  0.77977000  0.00000000
H        H    0.22023000  0.09585000  0.43588000  0.00000000
H        H    0.90415000  0.77977000  0.56412000  0.00000000
H        H    0.21565000  0.34003000  0.43588000  0.00000000
H        H    0.43588000  0.21565000  0.34003000  0.00000000
H        H    0.87562000  0.77977000  0.21565000  0.00000000
H        H    0.56412000  0.90415000  0.77977000  0.00000000
H        H    0.78435000  0.56412000  0.65997000  0.00000000
H        H    0.65997000  0.87562000  0.09585000  0.00000000
H        H    0.34003000  0.43588000  0.21565000  0.00000000
H        H    0.77977000  0.21565000  0.87562000  0.00000000
H        H    0.22023000  0.12438000  0.78435000  0.00000000
H        H    0.87562000  0.09585000  0.65997000  0.00000000
H        H    0.77977000  0.56412000  0.90415000  0.00000000
H        H    0.12438000  0.34003000  0.90415000  0.00000000
H        H    0.43588000  0.22023000  0.09585000  0.00000000
H        H    0.56412000  0.65997000  0.78435000  0.00000000
H        H    0.90415000  0.12438000  0.34003000  0.00000000
H        H    0.09585000  0.65997000  0.87562000  0.00000000
H        H    0.29288000  0.64583000  0.36621000  0.00000000
H        H    0.70712000  0.07333000  0.35295000  0.00000000
H        H    0.92667000  0.63379000  0.27962000  0.00000000
H        H    0.35295000  0.64583000  0.27962000  0.00000000
H        H    0.64583000  0.27962000  0.35295000  0.00000000
H        H    0.35417000  0.64705000  0.72038000  0.00000000
H        H    0.27962000  0.92667000  0.63379000  0.00000000
H        H    0.07333000  0.72038000  0.36621000  0.00000000
H        H    0.35417000  0.70712000  0.63379000  0.00000000
H        H    0.63379000  0.35417000  0.70712000  0.00000000
H        H    0.64705000  0.72038000  0.35417000  0.00000000
H        H    0.36621000  0.07333000  0.72038000  0.00000000
H        H    0.64583000  0.36621000  0.29288000  0.00000000
H        H    0.29288000  0.64705000  0.92667000  0.00000000
H        H    0.70712000  0.63379000  0.35417000  0.00000000
H        H    0.72038000  0.35417000  0.64705000  0.00000000
H        H    0.27962000  0.35295000  0.64583000  0.00000000
H        H    0.64705000  0.92667000  0.29288000  0.00000000
H        H    0.72038000  0.36621000  0.07333000  0.00000000
H        H    0.35295000  0.70712000  0.07333000  0.00000000
H        H    0.63379000  0.27962000  0.92667000  0.00000000
H        H    0.36621000  0.29288000  0.64583000  0.00000000
H        H    0.07333000  0.35295000  0.70712000  0.00000000
H        H    0.92667000  0.29288000  0.64705000  0.00000000
H        H    0.25180000  0.59998000  0.52484000  0.00000000
H        H    0.74820000  0.27304000  0.34818000  0.00000000
H        H    0.72696000  0.47516000  0.07514000  0.00000000
H        H    0.34818000  0.59998000  0.07514000  0.00000000
H        H    0.59998000  0.07514000  0.34818000  0.00000000
H        H    0.40002000  0.65182000  0.92486000  0.00000000
H        H    0.07514000  0.72696000  0.47516000  0.00000000
H        H    0.27304000  0.92486000  0.52484000  0.00000000
H        H    0.40002000  0.74820000  0.47516000  0.00000000
H        H    0.47516000  0.40002000  0.74820000  0.00000000
H        H    0.65182000  0.92486000  0.40002000  0.00000000
H        H    0.52484000  0.27304000  0.92486000  0.00000000
H        H    0.59998000  0.52484000  0.25180000  0.00000000
H        H    0.25180000  0.65182000  0.72696000  0.00000000
H        H    0.74820000  0.47516000  0.40002000  0.00000000
H        H    0.92486000  0.40002000  0.65182000  0.00000000
H        H    0.07514000  0.34818000  0.59998000  0.00000000
H        H    0.65182000  0.72696000  0.25180000  0.00000000
H        H    0.92486000  0.52484000  0.27304000  0.00000000
H        H    0.34818000  0.74820000  0.27304000  0.00000000
H        H    0.47516000  0.07514000  0.72696000  0.00000000
H        H    0.52484000  0.25180000  0.59998000  0.00000000
H        H    0.27304000  0.34818000  0.74820000  0.00000000
H        H    0.72696000  0.25180000  0.65182000  0.00000000
H        H    0.18157000  0.61718000  0.50759000  0.00000000
H        H    0.81843000  0.32602000  0.43561000  0.00000000
H        H    0.67398000  0.49241000  0.10959000  0.00000000
H        H    0.43561000  0.61718000  0.10959000  0.00000000
H        H    0.61718000  0.10959000  0.43561000  0.00000000
H        H    0.38282000  0.56439000  0.89041000  0.00000000
H        H    0.10959000  0.67398000  0.49241000  0.00000000
H        H    0.32602000  0.89041000  0.50759000  0.00000000
H        H    0.38282000  0.81843000  0.49241000  0.00000000
H        H    0.49241000  0.38282000  0.81843000  0.00000000
H        H    0.56439000  0.89041000  0.38282000  0.00000000
H        H    0.50759000  0.32602000  0.89041000  0.00000000
H        H    0.61718000  0.50759000  0.18157000  0.00000000
H        H    0.18157000  0.56439000  0.67398000  0.00000000
H        H    0.81843000  0.49241000  0.38282000  0.00000000
H        H    0.89041000  0.38282000  0.56439000  0.00000000
H        H    0.10959000  0.43561000  0.61718000  0.00000000
H        H    0.56439000  0.67398000  0.18157000  0.00000000
H        H    0.89041000  0.50759000  0.32602000  0.00000000
H        H    0.43561000  0.81843000  0.32602000  0.00000000
H        H    0.49241000  0.10959000  0.67398000  0.00000000
H        H    0.50759000  0.18157000  0.61718000  0.00000000
H        H    0.32602000  0.43561000  0.81843000  0.00000000
H        H    0.67398000  0.18157000  0.56439000  0.00000000
H        H    0.05135000  0.52037000  0.33820000  0.00000000
H        H    0.94865000  0.28685000  0.46902000  0.00000000
H        H    0.71315000  0.66180000  0.18217000  0.00000000
H        H    0.46902000  0.52037000  0.18217000  0.00000000
H        H    0.52037000  0.18217000  0.46902000  0.00000000
H        H    0.47963000  0.53098000  0.81783000  0.00000000
H        H    0.18217000  0.71315000  0.66180000  0.00000000
H        H    0.28685000  0.81783000  0.33820000  0.00000000
H        H    0.47963000  0.94865000  0.66180000  0.00000000
H        H    0.66180000  0.47963000  0.94865000  0.00000000
H        H    0.53098000  0.81783000  0.47963000  0.00000000
H        H    0.33820000  0.28685000  0.81783000  0.00000000
H        H    0.52037000  0.33820000  0.05135000  0.00000000
H        H    0.05135000  0.53098000  0.71315000  0.00000000
H        H    0.94865000  0.66180000  0.47963000  0.00000000
H        H    0.81783000  0.47963000  0.53098000  0.00000000
H        H    0.18217000  0.46902000  0.52037000  0.00000000
H        H    0.53098000  0.71315000  0.05135000  0.00000000
H        H    0.81783000  0.33820000  0.28685000  0.00000000
H        H    0.46902000  0.94865000  0.28685000  0.00000000
H        H    0.66180000  0.18217000  0.71315000  0.00000000
H        H    0.33820000  0.05135000  0.52037000  0.00000000
H        H    0.28685000  0.46902000  0.94865000  0.00000000
H        H    0.71315000  0.05135000  0.53098000  0.00000000
H        H    0.07265000  0.60071000  0.33896000  0.00000000
H        H    0.92735000  0.26631000  0.52806000  0.00000000
H        H    0.73369000  0.66104000  0.26175000  0.00000000
H        H    0.52806000  0.60071000  0.26175000  0.00000000
H        H    0.60071000  0.26175000  0.52806000  0.00000000
H        H    0.39929000  0.47194000  0.73825000  0.00000000
H        H    0.26175000  0.73369000  0.66104000  0.00000000
H        H    0.26631000  0.73825000  0.33896000  0.00000000
H        H    0.39929000  0.92735000  0.66104000  0.00000000
H        H    0.66104000  0.39929000  0.92735000  0.00000000
H        H    0.47194000  0.73825000  0.39929000  0.00000000
H        H    0.33896000  0.26631000  0.73825000  0.00000000
H        H    0.60071000  0.33896000  0.07265000  0.00000000
H        H    0.07265000  0.47194000  0.73369000  0.00000000
H        H    0.92735000  0.66104000  0.39929000  0.00000000
H        H    0.73825000  0.39929000  0.47194000  0.00000000
H        H    0.26175000  0.52806000  0.60071000  0.00000000
H        H    0.47194000  0.73369000  0.07265000  0.00000000
H        H    0.73825000  0.33896000  0.26631000  0.00000000
H        H    0.52806000  0.92735000  0.26631000  0.00000000
H        H    0.66104000  0.26175000  0.73369000  0.00000000
H        H    0.33896000  0.07265000  0.60071000  0.00000000
H        H    0.26631000  0.52806000  0.92735000  0.00000000
H        H    0.73369000  0.07265000  0.47194000  0.00000000
H        H    0.10149000  0.60003000  0.41878000  0.00000000
H        H    0.89851000  0.31729000  0.49854000  0.00000000
H        H    0.68271000  0.58122000  0.18125000  0.00000000
H        H    0.49854000  0.60003000  0.18125000  0.00000000
H        H    0.60003000  0.18125000  0.49854000  0.00000000
H        H    0.39997000  0.50146000  0.81875000  0.00000000
H        H    0.18125000  0.68271000  0.58122000  0.00000000
H        H    0.31729000  0.81875000  0.41878000  0.00000000
H        H    0.39997000  0.89851000  0.58122000  0.00000000
H        H    0.58122000  0.39997000  0.89851000  0.00000000
H        H    0.50146000  0.81875000  0.39997000  0.00000000
H        H    0.41878000  0.31729000  0.81875000  0.00000000
H        H    0.60003000  0.41878000  0.10149000  0.00000000
H        H    0.10149000  0.50146000  0.68271000  0.00000000
H        H    0.89851000  0.58122000  0.39997000  0.00000000
H        H    0.81875000  0.39997000  0.50146000  0.00000000
H        H    0.18125000  0.49854000  0.60003000  0.00000000
H        H    0.50146000  0.68271000  0.10149000  0.00000000
H        H    0.81875000  0.41878000  0.31729000  0.00000000
H        H    0.49854000  0.89851000  0.31729000  0.00000000
H        H    0.58122000  0.18125000  0.68271000  0.00000000
H        H    0.41878000  0.10149000  0.60003000  0.00000000
H        H    0.31729000  0.49854000  0.89851000  0.00000000
H        H    0.68271000  0.10149000  0.50146000  0.00000000
H        H    0.37065000  0.62660000  0.36689000  0.00000000
H        H    0.62935000  0.99624000  0.25595000  0.00000000
H        H    0.00376000  0.63311000  0.25971000  0.00000000
H        H    0.25595000  0.62660000  0.25971000  0.00000000
H        H    0.62660000  0.25971000  0.25595000  0.00000000
H        H    0.37340000  0.74405000  0.74029000  0.00000000
H        H    0.25971000  0.00376000  0.63311000  0.00000000
H        H    0.99624000  0.74029000  0.36689000  0.00000000
H        H    0.37340000  0.62935000  0.63311000  0.00000000
H        H    0.63311000  0.37340000  0.62935000  0.00000000
H        H    0.74405000  0.74029000  0.37340000  0.00000000
H        H    0.36689000  0.99624000  0.74029000  0.00000000
H        H    0.62660000  0.36689000  0.37065000  0.00000000
H        H    0.37065000  0.74405000  0.00376000  0.00000000
H        H    0.62935000  0.63311000  0.37340000  0.00000000
H        H    0.74029000  0.37340000  0.74405000  0.00000000
H        H    0.25971000  0.25595000  0.62660000  0.00000000
H        H    0.74405000  0.00376000  0.37065000  0.00000000
H        H    0.74029000  0.36689000  0.99624000  0.00000000
H        H    0.25595000  0.62935000  0.99624000  0.00000000
H        H    0.63311000  0.25971000  0.00376000  0.00000000
H        H    0.36689000  0.37065000  0.62660000  0.00000000
H        H    0.99624000  0.25595000  0.62935000  0.00000000
H        H    0.00376000  0.37065000  0.74405000  0.00000000
H        H    0.51199000  0.65305000  0.59570000  0.00000000
H        H    0.48801000  0.08371000  0.14106000  0.00000000
H        H    0.91629000  0.40430000  0.05735000  0.00000000
H        H    0.14106000  0.65305000  0.05735000  0.00000000
H        H    0.65305000  0.05735000  0.14106000  0.00000000
H        H    0.34695000  0.85894000  0.94265000  0.00000000
H        H    0.05735000  0.91629000  0.40430000  0.00000000
H        H    0.08371000  0.94265000  0.59570000  0.00000000
H        H    0.34695000  0.48801000  0.40430000  0.00000000
H        H    0.40430000  0.34695000  0.48801000  0.00000000
H        H    0.85894000  0.94265000  0.34695000  0.00000000
H        H    0.59570000  0.08371000  0.94265000  0.00000000
H        H    0.65305000  0.59570000  0.51199000  0.00000000
H        H    0.51199000  0.85894000  0.91629000  0.00000000
H        H    0.48801000  0.40430000  0.34695000  0.00000000
H        H    0.94265000  0.34695000  0.85894000  0.00000000
H        H    0.05735000  0.14106000  0.65305000  0.00000000
H        H    0.85894000  0.91629000  0.51199000  0.00000000
H        H    0.94265000  0.59570000  0.08371000  0.00000000
H        H    0.14106000  0.48801000  0.08371000  0.00000000
H        H    0.40430000  0.05735000  0.91629000  0.00000000
H        H    0.59570000  0.51199000  0.65305000  0.00000000
H        H    0.08371000  0.14106000  0.48801000  0.00000000
H        H    0.91629000  0.51199000  0.85894000  0.00000000
H        H    0.46854000  0.70178000  0.60416000  0.00000000
H        H    0.53146000  0.13562000  0.23324000  0.00000000
H        H    0.86438000  0.39584000  0.09762000  0.00000000
H        H    0.23324000  0.70178000  0.09762000  0.00000000
H        H    0.70178000  0.09762000  0.23324000  0.00000000
H        H    0.29822000  0.76676000  0.90238000  0.00000000
H        H    0.09762000  0.86438000  0.39584000  0.00000000
H        H    0.13562000  0.90238000  0.60416000  0.00000000
H        H    0.29822000  0.53146000  0.39584000  0.00000000
H        H    0.39584000  0.29822000  0.53146000  0.00000000
H        H    0.76676000  0.90238000  0.29822000  0.00000000
H        H    0.60416000  0.13562000  0.90238000  0.00000000
H        H    0.70178000  0.60416000  0.46854000  0.00000000
H        H    0.46854000  0.76676000  0.86438000  0.00000000
H        H    0.53146000  0.39584000  0.29822000  0.00000000
H        H    0.90238000  0.29822000  0.76676000  0.00000000
H        H    0.09762000  0.23324000  0.70178000  0.00000000
H        H    0.76676000  0.86438000  0.46854000  0.00000000
H        H    0.90238000  0.60416000  0.13562000  0.00000000
H        H    0.23324000  0.53146000  0.13562000  0.00000000
H        H    0.39584000  0.09762000  0.86438000  0.00000000
H        H    0.60416000  0.46854000  0.70178000  0.00000000
H        H    0.13562000  0.23324000  0.53146000  0.00000000
H        H    0.86438000  0.46854000  0.76676000  0.00000000
H        H    0.55534000  0.74249000  0.62045000  0.00000000
H        H    0.44466000  0.06511000  0.18715000  0.00000000
H        H    0.93489000  0.37955000  0.12204000  0.00000000
H        H    0.18715000  0.74249000  0.12204000  0.00000000
H        H    0.74249000  0.12204000  0.18715000  0.00000000
H        H    0.25751000  0.81285000  0.87796000  0.00000000
H        H    0.12204000  0.93489000  0.37955000  0.00000000
H        H    0.06511000  0.87796000  0.62045000  0.00000000
H        H    0.25751000  0.44466000  0.37955000  0.00000000
H        H    0.37955000  0.25751000  0.44466000  0.00000000
H        H    0.81285000  0.87796000  0.25751000  0.00000000
H        H    0.62045000  0.06511000  0.87796000  0.00000000
H        H    0.74249000  0.62045000  0.55534000  0.00000000
H        H    0.55534000  0.81285000  0.93489000  0.00000000
H        H    0.44466000  0.37955000  0.25751000  0.00000000
H        H    0.87796000  0.25751000  0.81285000  0.00000000
H        H    0.12204000  0.18715000  0.74249000  0.00000000
H        H    0.81285000  0.93489000  0.55534000  0.00000000
H        H    0.87796000  0.62045000  0.06511000  0.00000000
H        H    0.18715000  0.44466000  0.06511000  0.00000000
H        H    0.37955000  0.12204000  0.93489000  0.00000000
H        H    0.62045000  0.55534000  0.74249000  0.00000000
H        H    0.06511000  0.18715000  0.44466000  0.00000000
H        H    0.93489000  0.55534000  0.81285000  0.00000000
H        H    0.60458000  0.69522000  0.56328000  0.00000000
H        H    0.39542000  0.95870000  0.09064000  0.00000000
H        H    0.04130000  0.43672000  0.13194000  0.00000000
H        H    0.09064000  0.69522000  0.13194000  0.00000000
H        H    0.69522000  0.13194000  0.09064000  0.00000000
H        H    0.30478000  0.90936000  0.86806000  0.00000000
H        H    0.13194000  0.04130000  0.43672000  0.00000000
H        H    0.95870000  0.86806000  0.56328000  0.00000000
H        H    0.30478000  0.39542000  0.43672000  0.00000000
H        H    0.43672000  0.30478000  0.39542000  0.00000000
H        H    0.90936000  0.86806000  0.30478000  0.00000000
H        H    0.56328000  0.95870000  0.86806000  0.00000000
H        H    0.69522000  0.56328000  0.60458000  0.00000000
H        H    0.60458000  0.90936000  0.04130000  0.00000000
H        H    0.39542000  0.43672000  0.30478000  0.00000000
H        H    0.86806000  0.30478000  0.90936000  0.00000000
H        H    0.13194000  0.09064000  0.69522000  0.00000000
H        H    0.90936000  0.04130000  0.60458000  0.00000000
H        H    0.86806000  0.56328000  0.95870000  0.00000000
H        H    0.09064000  0.39542000  0.95870000  0.00000000
H        H    0.43672000  0.13194000  0.04130000  0.00000000
H        H    0.56328000  0.60458000  0.69522000  0.00000000
H        H    0.95870000  0.09064000  0.39542000  0.00000000
H        H    0.04130000  0.60458000  0.90936000  0.00000000
H        H    0.58582000  0.64269000  0.47769000  0.00000000
H        H    0.41418000  0.89187000  0.05687000  0.00000000
H        H    0.10813000  0.52231000  0.16500000  0.00000000
H        H    0.05687000  0.64269000  0.16500000  0.00000000
H        H    0.64269000  0.16500000  0.05687000  0.00000000
H        H    0.35731000  0.94313000  0.83500000  0.00000000
H        H    0.16500000  0.10813000  0.52231000  0.00000000
H        H    0.89187000  0.83500000  0.47769000  0.00000000
H        H    0.35731000  0.41418000  0.52231000  0.00000000
H        H    0.52231000  0.35731000  0.41418000  0.00000000
H        H    0.94313000  0.83500000  0.35731000  0.00000000
H        H    0.47769000  0.89187000  0.83500000  0.00000000
H        H    0.64269000  0.47769000  0.58582000  0.00000000
H        H    0.58582000  0.94313000  0.10813000  0.00000000
H        H    0.41418000  0.52231000  0.35731000  0.00000000
H        H    0.83500000  0.35731000  0.94313000  0.00000000
H        H    0.16500000  0.05687000  0.64269000  0.00000000
H        H    0.94313000  0.10813000  0.58582000  0.00000000
H        H    0.83500000  0.47769000  0.89187000  0.00000000
H        H    0.05687000  0.41418000  0.89187000  0.00000000
H        H    0.52231000  0.16500000  0.10813000  0.00000000
H        H    0.47769000  0.58582000  0.64269000  0.00000000
H        H    0.89187000  0.05687000  0.41418000  0.00000000
H        H    0.10813000  0.58582000  0.94313000  0.00000000
Zn       Zn   0.64900000  0.14900000  0.29800000  0.00000000
Zn       Zn   0.14900000  0.85100000  0.50000000  0.00000000
Zn       Zn   0.35100000  0.64900000  0.50000000  0.00000000
Zn       Zn   0.70200000  0.85100000  0.35100000  0.00000000
Zn       Zn   0.85100000  0.50000000  0.14900000  0.00000000
Zn       Zn   0.29800000  0.64900000  0.14900000  0.00000000
Zn       Zn   0.35100000  0.70200000  0.85100000  0.00000000
Zn       Zn   0.50000000  0.14900000  0.85100000  0.00000000
Zn       Zn   0.64900000  0.50000000  0.35100000  0.00000000
Zn       Zn   0.50000000  0.35100000  0.64900000  0.00000000
Zn       Zn   0.14900000  0.29800000  0.64900000  0.00000000
Zn       Zn   0.85100000  0.35100000  0.70200000  0.00000000
Zn       Zn   0.50000000  0.64527000  0.35473000  0.00000000
Zn       Zn   0.64527000  0.35473000  0.50000000  0.00000000
Zn       Zn   0.35473000  0.50000000  0.64527000  0.00000000
Zn       Zn   0.35473000  0.85473000  0.70946000  0.00000000
Zn       Zn   0.64527000  0.29054000  0.14527000  0.00000000
Zn       Zn   0.70946000  0.35473000  0.85473000  0.00000000
Zn       Zn   0.85473000  0.70946000  0.35473000  0.00000000
Zn       Zn   0.29054000  0.14527000  0.64527000  0.00000000
Zn       Zn   0.14527000  0.50000000  0.85473000  0.00000000
Zn       Zn   0.85473000  0.14527000  0.50000000  0.00000000
Zn       Zn   0.14527000  0.64527000  0.29054000  0.00000000
Zn       Zn   0.50000000  0.85473000  0.14527000  0.00000000
