data_ZIF-69

_cell_length_a  26.08400000
_cell_length_b  26.08400000
_cell_length_c  19.40820000
_cell_angle_alpha  90.00000000
_cell_angle_beta  90.00000000
_cell_angle_gamma  120.00000000


_symmetry_space_group_name_Hall ' P 1'
_symmetry_space_group_name_H-M  'P 1'
_symmetry_Int_Tables_number     1

loop_
_atom_site_label
_atom_site_type_symbol
_atom_site_fract_x
_atom_site_fract_y
_atom_site_fract_z
_atom_site_charge
Zn       Zn   0.56298400  0.66640300  0.59724000  0.00000000
Zn       Zn   0.33359700  0.89658100  0.59724000  0.00000000
Zn       Zn   0.43701600  0.33359700  0.40276000  0.00000000
Zn       Zn   0.66640300  0.10341900  0.40276000  0.00000000
Zn       Zn   0.10341900  0.43701600  0.59724000  0.00000000
Zn       Zn   0.89658100  0.56298400  0.40276000  0.00000000
N        N    0.61576300  0.65386300  0.53913800  0.00000000
N        N    0.34613700  0.96190000  0.53913800  0.00000000
N        N    0.38423700  0.34613700  0.46086200  0.00000000
N        N    0.65386300  0.03810000  0.46086200  0.00000000
N        N    0.03810000  0.38423700  0.53913800  0.00000000
N        N    0.96190000  0.61576300  0.46086200  0.00000000
C        C    0.67130500  0.69475400  0.52219400  0.00000000
C        C    0.30524600  0.97655100  0.52219400  0.00000000
C        C    0.32869500  0.30524600  0.47780600  0.00000000
C        C    0.69475400  0.02344900  0.47780600  0.00000000
C        C    0.02344900  0.32869500  0.52219400  0.00000000
C        C    0.97655100  0.67130500  0.47780600  0.00000000
C        C    0.76122500  0.78819600  0.51850300  0.00000000
C        C    0.21180400  0.97302900  0.51850300  0.00000000
C        C    0.23877500  0.21180400  0.48149700  0.00000000
C        C    0.78819600  0.02697100  0.48149700  0.00000000
C        C    0.02697100  0.23877500  0.51850300  0.00000000
C        C    0.97302900  0.76122500  0.48149700  0.00000000
H        H    0.78764700  0.83367800  0.53508800  0.00000000
H        H    0.16632200  0.95396900  0.53508800  0.00000000
H        H    0.21235300  0.16632200  0.46491200  0.00000000
H        H    0.83367800  0.04603100  0.46491200  0.00000000
H        H    0.04603100  0.21235300  0.53508800  0.00000000
H        H    0.95396900  0.78764700  0.46491200  0.00000000
C        C    0.70366800  0.75308800  0.54490300  0.00000000
C        C    0.24691200  0.95058000  0.54490300  0.00000000
C        C    0.29633200  0.24691200  0.45509700  0.00000000
C        C    0.75308800  0.04942000  0.45509700  0.00000000
C        C    0.04942000  0.29633200  0.54490300  0.00000000
C        C    0.95058000  0.70366800  0.45509700  0.00000000
H        H    0.68542700  0.77086800  0.58164400  0.00000000
H        H    0.22913200  0.91455900  0.58164400  0.00000000
H        H    0.31457300  0.22913200  0.41835600  0.00000000
H        H    0.77086800  0.08544100  0.41835600  0.00000000
H        H    0.08544100  0.31457300  0.58164400  0.00000000
H        H    0.91455900  0.68542700  0.41835600  0.00000000
N        N    0.48350500  0.60355500  0.58255900  0.00000000
N        N    0.39644500  0.87995000  0.58255900  0.00000000
N        N    0.51649500  0.39644500  0.41744100  0.00000000
N        N    0.60355500  0.12005000  0.41744100  0.00000000
N        N    0.12005000  0.51649500  0.58255900  0.00000000
N        N    0.87995000  0.48350500  0.41744100  0.00000000
O        O    0.53935100  0.54611800  0.64535300  0.00000000
O        O    0.45388200  0.99323300  0.64535300  0.00000000
O        O    0.46064900  0.45388200  0.35464700  0.00000000
O        O    0.54611800  0.00676700  0.35464700  0.00000000
O        O    0.00676700  0.46064900  0.64535300  0.00000000
O        O    0.99323300  0.53935100  0.35464700  0.00000000
C        C    0.44117900  0.61213900  0.55468600  0.00000000
C        C    0.38786100  0.82904000  0.55468600  0.00000000
C        C    0.55882100  0.38786100  0.44531400  0.00000000
C        C    0.61213900  0.17096000  0.44531400  0.00000000
C        C    0.17096000  0.55882100  0.55468600  0.00000000
C        C    0.82904000  0.44117900  0.44531400  0.00000000
H        H    0.44771100  0.65440800  0.53755100  0.00000000
H        H    0.34559200  0.79330300  0.53755100  0.00000000
H        H    0.55228900  0.34559200  0.46244900  0.00000000
H        H    0.65440800  0.20669700  0.46244900  0.00000000
H        H    0.20669700  0.55228900  0.53755100  0.00000000
H        H    0.79330300  0.44771100  0.46244900  0.00000000
N        N    0.58424200  0.66945600  0.69243600  0.00000000
N        N    0.33054400  0.91478600  0.69243600  0.00000000
N        N    0.41575800  0.33054400  0.30756400  0.00000000
N        N    0.66945600  0.08521400  0.30756400  0.00000000
N        N    0.08521400  0.41575800  0.69243600  0.00000000
N        N    0.91478600  0.58424200  0.30756400  0.00000000
O        O    0.47894000  0.67595100  0.69286800  0.00000000
O        O    0.32404900  0.80298900  0.69286800  0.00000000
O        O    0.52106000  0.32404900  0.30713200  0.00000000
O        O    0.67595100  0.19701100  0.30713200  0.00000000
O        O    0.19701100  0.52106000  0.69286800  0.00000000
O        O    0.80298900  0.47894000  0.30713200  0.00000000
C        C    0.63165300  0.66702200  0.71533000  0.00000000
C        C    0.33297800  0.96463100  0.71533000  0.00000000
C        C    0.36834700  0.33297800  0.28467000  0.00000000
C        C    0.66702200  0.03536900  0.28467000  0.00000000
C        C    0.03536900  0.36834700  0.71533000  0.00000000
C        C    0.96463100  0.63165300  0.28467000  0.00000000
H        H    0.66358000  0.66417400  0.68238000  0.00000000
H        H    0.33582600  0.99940600  0.68238000  0.00000000
H        H    0.33642000  0.33582600  0.31762000  0.00000000
H        H    0.66417400  0.00059400  0.31762000  0.00000000
H        H    0.00059400  0.33642000  0.68238000  0.00000000
H        H    0.99940600  0.66358000  0.31762000  0.00000000
N        N    0.56722000  0.73971800  0.57131600  0.00000000
N        N    0.26028200  0.82750200  0.57131600  0.00000000
N        N    0.43278000  0.26028200  0.42868400  0.00000000
N        N    0.73971800  0.17249800  0.42868400  0.00000000
N        N    0.17249800  0.43278000  0.57131600  0.00000000
N        N    0.82750200  0.56722000  0.42868400  0.00000000
C        C    0.56062500  0.75363200  0.50673000  0.00000000
C        C    0.24636800  0.80699300  0.50673000  0.00000000
C        C    0.43937500  0.24636800  0.49327000  0.00000000
C        C    0.75363200  0.19300700  0.49327000  0.00000000
C        C    0.19300700  0.43937500  0.50673000  0.00000000
C        C    0.80699300  0.56062500  0.49327000  0.00000000
C        C    0.54346800  0.74300800  0.38505600  0.00000000
C        C    0.25699200  0.80046000  0.38505600  0.00000000
C        C    0.45653200  0.25699200  0.61494400  0.00000000
C        C    0.74300800  0.19954000  0.61494400  0.00000000
C        C    0.19954000  0.45653200  0.38505600  0.00000000
C        C    0.80046000  0.54346800  0.61494400  0.00000000
C        C    0.55203900  0.72057300  0.44718300  0.00000000
C        C    0.27942700  0.83146600  0.44718300  0.00000000
C        C    0.44796100  0.27942700  0.55281700  0.00000000
C        C    0.72057300  0.16853400  0.55281700  0.00000000
C        C    0.16853400  0.44796100  0.44718300  0.00000000
C        C    0.83146600  0.55203900  0.55281700  0.00000000
H        H    0.55125800  0.67874200  0.44872300  0.00000000
H        H    0.32125800  0.87251600  0.44872300  0.00000000
H        H    0.44874200  0.32125800  0.55127700  0.00000000
H        H    0.67874200  0.12748400  0.55127700  0.00000000
H        H    0.12748400  0.44874200  0.44872300  0.00000000
H        H    0.87251600  0.55125800  0.55127700  0.00000000
Cl       Cl   0.53214100  0.70293900  0.30868800  0.00000000
Cl       Cl   0.29706100  0.82920200  0.30868800  0.00000000
Cl       Cl   0.46785900  0.29706100  0.69131200  0.00000000
Cl       Cl   0.70293900  0.17079800  0.69131200  0.00000000
Cl       Cl   0.17079800  0.46785900  0.30868800  0.00000000
Cl       Cl   0.82920200  0.53214100  0.69131200  0.00000000
Zn       Zn   0.43715200  0.33322400  0.09579500  0.00000000
Zn       Zn   0.66677600  0.10392800  0.09579500  0.00000000
Zn       Zn   0.56284800  0.66677600  0.90420500  0.00000000
Zn       Zn   0.33322400  0.89607200  0.90420500  0.00000000
Zn       Zn   0.89607200  0.56284800  0.09579500  0.00000000
Zn       Zn   0.10392800  0.43715200  0.90420500  0.00000000
N        N    0.38454300  0.34562100  0.03726200  0.00000000
N        N    0.65437900  0.03892200  0.03726200  0.00000000
N        N    0.61545700  0.65437900  0.96273800  0.00000000
N        N    0.34562100  0.96107800  0.96273800  0.00000000
N        N    0.96107800  0.61545700  0.03726200  0.00000000
N        N    0.03892200  0.38454300  0.96273800  0.00000000
C        C    0.32906500  0.30473200  0.02007500  0.00000000
C        C    0.69526800  0.02433300  0.02007500  0.00000000
C        C    0.67093500  0.69526800  0.97992500  0.00000000
C        C    0.30473200  0.97566700  0.97992500  0.00000000
C        C    0.97566700  0.67093500  0.02007500  0.00000000
C        C    0.02433300  0.32906500  0.97992500  0.00000000
C        C    0.23913200  0.21129800  0.01606100  0.00000000
C        C    0.78870200  0.02783400  0.01606100  0.00000000
C        C    0.76086800  0.78870200  0.98393900  0.00000000
C        C    0.21129800  0.97216600  0.98393900  0.00000000
C        C    0.97216600  0.76086800  0.01606100  0.00000000
C        C    0.02783400  0.23913200  0.98393900  0.00000000
H        H    0.21269400  0.16575800  0.03245800  0.00000000
H        H    0.83424200  0.04693600  0.03245800  0.00000000
H        H    0.78730600  0.83424200  0.96754200  0.00000000
H        H    0.16575800  0.95306400  0.96754200  0.00000000
H        H    0.95306400  0.78730600  0.03245800  0.00000000
H        H    0.04693600  0.21269400  0.96754200  0.00000000
C        C    0.29665400  0.24634100  0.04259900  0.00000000
C        C    0.75365900  0.05031300  0.04259900  0.00000000
C        C    0.70334600  0.75365900  0.95740100  0.00000000
C        C    0.24634100  0.94968700  0.95740100  0.00000000
C        C    0.94968700  0.70334600  0.04259900  0.00000000
C        C    0.05031300  0.29665400  0.95740100  0.00000000
H        H    0.31482800  0.22846500  0.07930000  0.00000000
H        H    0.77153500  0.08636300  0.07930000  0.00000000
H        H    0.68517200  0.77153500  0.92070000  0.00000000
H        H    0.22846500  0.91363700  0.92070000  0.00000000
H        H    0.91363700  0.68517200  0.07930000  0.00000000
H        H    0.08636300  0.31482800  0.92070000  0.00000000
N        N    0.51652700  0.39635100  0.08177500  0.00000000
N        N    0.60364900  0.12017600  0.08177500  0.00000000
N        N    0.48347300  0.60364900  0.91822500  0.00000000
N        N    0.39635100  0.87982400  0.91822500  0.00000000
N        N    0.87982400  0.48347300  0.08177500  0.00000000
N        N    0.12017600  0.51652700  0.91822500  0.00000000
O        O    0.45969300  0.45323400  0.14370600  0.00000000
O        O    0.54676600  0.00645900  0.14370600  0.00000000
O        O    0.54030700  0.54676600  0.85629400  0.00000000
O        O    0.45323400  0.99354100  0.85629400  0.00000000
O        O    0.99354100  0.54030700  0.14370600  0.00000000
O        O    0.00645900  0.45969300  0.85629400  0.00000000
C        C    0.55917600  0.38813400  0.05423600  0.00000000
C        C    0.61186600  0.17104200  0.05423600  0.00000000
C        C    0.44082400  0.61186600  0.94576400  0.00000000
C        C    0.38813400  0.82895800  0.94576400  0.00000000
C        C    0.82895800  0.44082400  0.05423600  0.00000000
C        C    0.17104200  0.55917600  0.94576400  0.00000000
H        H    0.55288500  0.34604100  0.03673500  0.00000000
H        H    0.65395900  0.20684400  0.03673500  0.00000000
H        H    0.44711500  0.65395900  0.96326500  0.00000000
H        H    0.34604100  0.79315600  0.96326500  0.00000000
H        H    0.79315600  0.44711500  0.03673500  0.00000000
H        H    0.20684400  0.55288500  0.96326500  0.00000000
N        N    0.41571700  0.33029200  0.19091000  0.00000000
N        N    0.66970800  0.08542500  0.19091000  0.00000000
N        N    0.58428300  0.66970800  0.80909000  0.00000000
N        N    0.33029200  0.91457500  0.80909000  0.00000000
N        N    0.91457500  0.58428300  0.19091000  0.00000000
N        N    0.08542500  0.41571700  0.80909000  0.00000000
O        O    0.52113400  0.32390100  0.19180500  0.00000000
O        O    0.67609900  0.19723300  0.19180500  0.00000000
O        O    0.47886600  0.67609900  0.80819500  0.00000000
O        O    0.32390100  0.80276700  0.80819500  0.00000000
O        O    0.80276700  0.47886600  0.19180500  0.00000000
O        O    0.19723300  0.52113400  0.80819500  0.00000000
C        C    0.36831900  0.33282200  0.21365100  0.00000000
C        C    0.66717800  0.03549700  0.21365100  0.00000000
C        C    0.63168100  0.66717800  0.78634900  0.00000000
C        C    0.33282200  0.96450300  0.78634900  0.00000000
C        C    0.96450300  0.63168100  0.21365100  0.00000000
C        C    0.03549700  0.36831900  0.78634900  0.00000000
H        H    0.33639100  0.33557000  0.18059600  0.00000000
H        H    0.66443000  0.00082100  0.18059600  0.00000000
H        H    0.66360900  0.66443000  0.81940400  0.00000000
H        H    0.33557000  0.99917900  0.81940400  0.00000000
H        H    0.99917900  0.66360900  0.18059600  0.00000000
H        H    0.00082100  0.33639100  0.81940400  0.00000000
N        N    0.43308000  0.25982500  0.07030900  0.00000000
N        N    0.74017500  0.17325500  0.07030900  0.00000000
N        N    0.56692000  0.74017500  0.92969100  0.00000000
N        N    0.25982500  0.82674500  0.92969100  0.00000000
N        N    0.82674500  0.56692000  0.07030900  0.00000000
N        N    0.17325500  0.43308000  0.92969100  0.00000000
C        C    0.43972000  0.24506900  0.00608500  0.00000000
C        C    0.75493100  0.19465100  0.00608500  0.00000000
C        C    0.56028000  0.75493100  0.99391500  0.00000000
C        C    0.24506900  0.80534900  0.99391500  0.00000000
C        C    0.80534900  0.56028000  0.00608500  0.00000000
C        C    0.19465100  0.43972000  0.99391500  0.00000000
C        C    0.45732100  0.25387200  0.88444700  0.00000000
C        C    0.74612800  0.20344900  0.88444700  0.00000000
C        C    0.54267900  0.74612800  0.11555300  0.00000000
C        C    0.25387200  0.79655100  0.11555300  0.00000000
C        C    0.79655100  0.54267900  0.88444700  0.00000000
C        C    0.20344900  0.45732100  0.11555300  0.00000000
H        H    0.46467600  0.27802000  0.83684300  0.00000000
H        H    0.72198000  0.18665600  0.83684300  0.00000000
H        H    0.53532400  0.72198000  0.16315700  0.00000000
H        H    0.27802000  0.81334400  0.16315700  0.00000000
H        H    0.81334400  0.53532400  0.83684300  0.00000000
H        H    0.18665600  0.46467600  0.16315700  0.00000000
C        C    0.44870600  0.27735800  0.94574860  0.00000000
C        C    0.72264200  0.17134800  0.94574860  0.00000000
C        C    0.55129400  0.72264200  0.05425140  0.00000000
C        C    0.27735800  0.82865200  0.05425140  0.00000000
C        C    0.82865200  0.55129400  0.94574860  0.00000000
C        C    0.17134800  0.44870600  0.05425140  0.00000000
H        H    0.44975100  0.31933700  0.94592030  0.00000000
H        H    0.68066300  0.13041400  0.94592030  0.00000000
H        H    0.55024900  0.68066300  0.05407970  0.00000000
H        H    0.31933700  0.86958600  0.05407970  0.00000000
H        H    0.86958600  0.55024900  0.94592030  0.00000000
H        H    0.13041400  0.44975100  0.05407970  0.00000000
Zn       Zn   0.66623000  0.56246300  0.40419800  0.00000000
Zn       Zn   0.43753700  0.10376700  0.40419800  0.00000000
Zn       Zn   0.33377000  0.43753700  0.59580200  0.00000000
Zn       Zn   0.56246300  0.89623300  0.59580200  0.00000000
Zn       Zn   0.89623300  0.33377000  0.40419800  0.00000000
Zn       Zn   0.10376700  0.66623000  0.59580200  0.00000000
N        N    0.65384500  0.61515500  0.46245900  0.00000000
N        N    0.38484500  0.03869000  0.46245900  0.00000000
N        N    0.34615500  0.38484500  0.53754100  0.00000000
N        N    0.61515500  0.96131000  0.53754100  0.00000000
N        N    0.96131000  0.34615500  0.46245900  0.00000000
N        N    0.03869000  0.65384500  0.53754100  0.00000000
C        C    0.69389300  0.67173200  0.47605600  0.00000000
C        C    0.32826800  0.02216100  0.47605600  0.00000000
C        C    0.30610700  0.32826800  0.52394400  0.00000000
C        C    0.67173200  0.97783900  0.52394400  0.00000000
C        C    0.97783900  0.30610700  0.47605600  0.00000000
C        C    0.02216100  0.69389300  0.52394400  0.00000000
C        C    0.78456900  0.76444300  0.47044100  0.00000000
C        C    0.23555700  0.02012600  0.47044100  0.00000000
C        C    0.21543100  0.23555700  0.52955900  0.00000000
C        C    0.76444300  0.97987400  0.52955900  0.00000000
C        C    0.97987400  0.21543100  0.47044100  0.00000000
C        C    0.02012600  0.78456900  0.52955900  0.00000000
C        C    0.75062500  0.70512600  0.44888300  0.00000000
C        C    0.29487400  0.04549900  0.44888300  0.00000000
C        C    0.24937500  0.29487400  0.55111700  0.00000000
C        C    0.70512600  0.95450100  0.55111700  0.00000000
C        C    0.95450100  0.24937500  0.44888300  0.00000000
C        C    0.04549900  0.75062500  0.55111700  0.00000000
H        H    0.76769600  0.68630800  0.41194900  0.00000000
H        H    0.31369200  0.08138800  0.41194900  0.00000000
H        H    0.23230400  0.31369200  0.58805100  0.00000000
H        H    0.68630800  0.91861200  0.58805100  0.00000000
H        H    0.91861200  0.23230400  0.41194900  0.00000000
H        H    0.08138800  0.76769600  0.58805100  0.00000000
Cl       Cl   0.85578500  0.80931100  0.43685200  0.00000000
Cl       Cl   0.19068900  0.04647400  0.43685200  0.00000000
Cl       Cl   0.14421500  0.19068900  0.56314800  0.00000000
Cl       Cl   0.80931100  0.95352600  0.56314800  0.00000000
Cl       Cl   0.95352600  0.14421500  0.43685200  0.00000000
Cl       Cl   0.04647400  0.85578500  0.56314800  0.00000000
N        N    0.60323000  0.48310000  0.41836400  0.00000000
N        N    0.51690000  0.12013000  0.41836400  0.00000000
N        N    0.39677000  0.51690000  0.58163600  0.00000000
N        N    0.48310000  0.87987000  0.58163600  0.00000000
N        N    0.87987000  0.39677000  0.41836400  0.00000000
N        N    0.12013000  0.60323000  0.58163600  0.00000000
O        O    0.54614200  0.54023700  0.35778700  0.00000000
O        O    0.45976300  0.00590500  0.35778700  0.00000000
O        O    0.45385800  0.45976300  0.64221300  0.00000000
O        O    0.54023700  0.99409500  0.64221300  0.00000000
O        O    0.99409500  0.45385800  0.35778700  0.00000000
O        O    0.00590500  0.54614200  0.64221300  0.00000000
C        C    0.61146200  0.44046200  0.44588900  0.00000000
C        C    0.55953800  0.17100000  0.44588900  0.00000000
C        C    0.38853800  0.55953800  0.55411100  0.00000000
C        C    0.44046200  0.82900000  0.55411100  0.00000000
C        C    0.82900000  0.38853800  0.44588900  0.00000000
C        C    0.17100000  0.61146200  0.55411100  0.00000000
H        H    0.65354800  0.44679000  0.46348200  0.00000000
H        H    0.55321000  0.20675800  0.46348200  0.00000000
H        H    0.34645200  0.55321000  0.53651800  0.00000000
H        H    0.44679000  0.79324200  0.53651800  0.00000000
H        H    0.79324200  0.34645200  0.46348200  0.00000000
H        H    0.20675800  0.65354800  0.53651800  0.00000000
N        N    0.66894600  0.58372000  0.30906100  0.00000000
N        N    0.41628000  0.08522600  0.30906100  0.00000000
N        N    0.33105400  0.41628000  0.69093900  0.00000000
N        N    0.58372000  0.91477400  0.69093900  0.00000000
N        N    0.91477400  0.33105400  0.30906100  0.00000000
N        N    0.08522600  0.66894600  0.69093900  0.00000000
O        O    0.67581600  0.47856500  0.30816700  0.00000000
O        O    0.52143500  0.19725100  0.30816700  0.00000000
O        O    0.32418400  0.52143500  0.69183300  0.00000000
O        O    0.47856500  0.80274900  0.69183300  0.00000000
O        O    0.80274900  0.32418400  0.30816700  0.00000000
O        O    0.19725100  0.67581600  0.69183300  0.00000000
C        C    0.66601400  0.63089800  0.28631700  0.00000000
C        C    0.36910200  0.03511600  0.28631700  0.00000000
C        C    0.33398600  0.36910200  0.71368300  0.00000000
C        C    0.63089800  0.96488400  0.71368300  0.00000000
C        C    0.96488400  0.33398600  0.28631700  0.00000000
C        C    0.03511600  0.66601400  0.71368300  0.00000000
H        H    0.66295000  0.66266200  0.31934000  0.00000000
H        H    0.33733800  0.00028800  0.31934000  0.00000000
H        H    0.33705000  0.33733800  0.68066000  0.00000000
H        H    0.66266200  0.99971200  0.68066000  0.00000000
H        H    0.99971200  0.33705000  0.31934000  0.00000000
H        H    0.00028800  0.66295000  0.68066000  0.00000000
N        N    0.73977200  0.56685500  0.42967100  0.00000000
N        N    0.43314500  0.17291700  0.42967100  0.00000000
N        N    0.26022800  0.43314500  0.57032900  0.00000000
N        N    0.56685500  0.82708300  0.57032900  0.00000000
N        N    0.82708300  0.26022800  0.42967100  0.00000000
N        N    0.17291700  0.73977200  0.57032900  0.00000000
C        C    0.75462600  0.56037800  0.49391600  0.00000000
C        C    0.43962200  0.19424800  0.49391600  0.00000000
C        C    0.24537400  0.43962200  0.50608400  0.00000000
C        C    0.56037800  0.80575200  0.50608400  0.00000000
C        C    0.80575200  0.24537400  0.49391600  0.00000000
C        C    0.19424800  0.75462600  0.50608400  0.00000000
C        C    0.74608100  0.54320600  0.61564100  0.00000000
C        C    0.45679400  0.20287500  0.61564100  0.00000000
C        C    0.25391900  0.45679400  0.38435900  0.00000000
C        C    0.54320600  0.79712500  0.38435900  0.00000000
C        C    0.79712500  0.25391900  0.61564100  0.00000000
C        C    0.20287500  0.74608100  0.38435900  0.00000000
H        H    0.72204100  0.53602200  0.66330000  0.00000000
H        H    0.46397800  0.18601900  0.66330000  0.00000000
H        H    0.27795900  0.46397800  0.33670000  0.00000000
H        H    0.53602200  0.81398100  0.33670000  0.00000000
H        H    0.81398100  0.27795900  0.66330000  0.00000000
H        H    0.18601900  0.72204100  0.33670000  0.00000000
C        C    0.72242800  0.55153100  0.55429800  0.00000000
C        C    0.44846900  0.17089700  0.55429800  0.00000000
C        C    0.27757200  0.44846900  0.44570200  0.00000000
C        C    0.55153100  0.82910300  0.44570200  0.00000000
C        C    0.82910300  0.27757200  0.55429800  0.00000000
C        C    0.17089700  0.72242800  0.44570200  0.00000000
H        H    0.68041600  0.55041200  0.55415100  0.00000000
H        H    0.44958800  0.13000400  0.55415100  0.00000000
H        H    0.31958400  0.44958800  0.44584900  0.00000000
H        H    0.55041200  0.86999600  0.44584900  0.00000000
H        H    0.86999600  0.31958400  0.55415100  0.00000000
H        H    0.13000400  0.68041600  0.44584900  0.00000000
Zn       Zn   0.33411900  0.43738600  0.90280090  0.00000000
Zn       Zn   0.56261400  0.89673300  0.90280090  0.00000000
Zn       Zn   0.66588100  0.56261400  0.09719910  0.00000000
Zn       Zn   0.43738600  0.10326700  0.09719910  0.00000000
Zn       Zn   0.10326700  0.66588100  0.90280090  0.00000000
Zn       Zn   0.89673300  0.33411900  0.09719910  0.00000000
N        N    0.34659000  0.38450000  0.96064330  0.00000000
N        N    0.61550000  0.96209000  0.96064330  0.00000000
N        N    0.65341000  0.61550000  0.03935670  0.00000000
N        N    0.38450000  0.03791000  0.03935670  0.00000000
N        N    0.03791000  0.65341000  0.96064330  0.00000000
N        N    0.96209000  0.34659000  0.03935670  0.00000000
C        C    0.30654900  0.32786600  0.97399100  0.00000000
C        C    0.67213400  0.97868300  0.97399100  0.00000000
C        C    0.69345100  0.67213400  0.02600900  0.00000000
C        C    0.32786600  0.02131700  0.02600900  0.00000000
C        C    0.02131700  0.69345100  0.97399100  0.00000000
C        C    0.97868300  0.30654900  0.02600900  0.00000000
C        C    0.21584100  0.23519800  0.96812050  0.00000000
C        C    0.76480200  0.98064300  0.96812050  0.00000000
C        C    0.78415900  0.76480200  0.03187950  0.00000000
C        C    0.23519800  0.01935700  0.03187950  0.00000000
C        C    0.01935700  0.78415900  0.96812050  0.00000000
C        C    0.98064300  0.21584100  0.03187950  0.00000000
C        C    0.24983300  0.29456200  0.94675410  0.00000000
C        C    0.70543800  0.95527100  0.94675410  0.00000000
C        C    0.75016700  0.70543800  0.05324590  0.00000000
C        C    0.29456200  0.04472900  0.05324590  0.00000000
C        C    0.04472900  0.75016700  0.94675410  0.00000000
C        C    0.95527100  0.24983300  0.05324590  0.00000000
H        H    0.23280000  0.31349600  0.90992860  0.00000000
H        H    0.68650400  0.91930400  0.90992860  0.00000000
H        H    0.76720000  0.68650400  0.09007140  0.00000000
H        H    0.31349600  0.08069600  0.09007140  0.00000000
H        H    0.08069600  0.76720000  0.90992860  0.00000000
H        H    0.91930400  0.23280000  0.09007140  0.00000000
Cl       Cl   0.14460600  0.19049000  0.93449030  0.00000000
Cl       Cl   0.80951000  0.95411600  0.93449030  0.00000000
Cl       Cl   0.85539400  0.80951000  0.06550970  0.00000000
Cl       Cl   0.19049000  0.04588400  0.06550970  0.00000000
Cl       Cl   0.04588400  0.85539400  0.93449030  0.00000000
Cl       Cl   0.95411600  0.14460600  0.06550970  0.00000000
N        N    0.39686500  0.51685900  0.91760020  0.00000000
N        N    0.48314100  0.88000600  0.91760020  0.00000000
N        N    0.60313500  0.48314100  0.08239980  0.00000000
N        N    0.51685900  0.11999400  0.08239980  0.00000000
N        N    0.11999400  0.60313500  0.91760020  0.00000000
N        N    0.88000600  0.39686500  0.08239980  0.00000000
O        O    0.45449100  0.46066600  0.85622200  0.00000000
O        O    0.53933400  0.99382500  0.85622200  0.00000000
O        O    0.54550900  0.53933400  0.14377800  0.00000000
O        O    0.46066600  0.00617500  0.14377800  0.00000000
O        O    0.00617500  0.54550900  0.85622200  0.00000000
O        O    0.99382500  0.45449100  0.14377800  0.00000000
C        C    0.38825400  0.55919700  0.94536210  0.00000000
C        C    0.44080300  0.82905700  0.94536210  0.00000000
C        C    0.61174600  0.44080300  0.05463790  0.00000000
C        C    0.55919700  0.17094300  0.05463790  0.00000000
C        C    0.17094300  0.61174600  0.94536210  0.00000000
C        C    0.82905700  0.38825400  0.05463790  0.00000000
H        H    0.34598200  0.55265600  0.96250080  0.00000000
H        H    0.44734400  0.79332600  0.96250080  0.00000000
H        H    0.65401800  0.44734400  0.03749920  0.00000000
H        H    0.55265600  0.20667400  0.03749920  0.00000000
H        H    0.20667400  0.65401800  0.96250080  0.00000000
H        H    0.79332600  0.34598200  0.03749920  0.00000000
N        N    0.33128500  0.41630500  0.80758500  0.00000000
N        N    0.58369500  0.91498000  0.80758500  0.00000000
N        N    0.66871500  0.58369500  0.19241500  0.00000000
N        N    0.41630500  0.08502000  0.19241500  0.00000000
N        N    0.08502000  0.66871500  0.80758500  0.00000000
N        N    0.91498000  0.33128500  0.19241500  0.00000000
O        O    0.32420200  0.52128500  0.80716900  0.00000000
O        O    0.47871500  0.80291700  0.80716900  0.00000000
O        O    0.67579800  0.47871500  0.19283100  0.00000000
O        O    0.52128500  0.19708300  0.19283100  0.00000000
O        O    0.19708300  0.67579800  0.80716900  0.00000000
O        O    0.80291700  0.32420200  0.19283100  0.00000000
C        C    0.33413000  0.36912100  0.78467900  0.00000000
C        C    0.63087900  0.96500900  0.78467900  0.00000000
C        C    0.66587000  0.63087900  0.21532100  0.00000000
C        C    0.36912100  0.03499100  0.21532100  0.00000000
C        C    0.03499100  0.66587000  0.78467900  0.00000000
C        C    0.96500900  0.33413000  0.21532100  0.00000000
N        N    0.26069000  0.43286200  0.92871420  0.00000000
N        N    0.56713800  0.82782800  0.92871420  0.00000000
N        N    0.73931000  0.56713800  0.07128580  0.00000000
N        N    0.43286200  0.17217200  0.07128580  0.00000000
N        N    0.17217200  0.73931000  0.92871420  0.00000000
N        N    0.82782800  0.26069000  0.07128580  0.00000000
C        C    0.24681100  0.43955100  0.99328710  0.00000000
C        C    0.56044900  0.80726000  0.99328710  0.00000000
C        C    0.75318900  0.56044900  0.00671290  0.00000000
C        C    0.43955100  0.19274000  0.00671290  0.00000000
C        C    0.19274000  0.75318900  0.99328710  0.00000000
C        C    0.80726000  0.24681100  0.00671290  0.00000000
C        C    0.25761900  0.45716700  0.11487800  0.00000000
C        C    0.54283300  0.80045200  0.11487800  0.00000000
C        C    0.74238100  0.54283300  0.88512200  0.00000000
C        C    0.45716700  0.19954800  0.88512200  0.00000000
C        C    0.19954800  0.74238100  0.11487800  0.00000000
C        C    0.80045200  0.25761900  0.88512200  0.00000000
C        C    0.27998000  0.44839800  0.05280100  0.00000000
C        C    0.55160200  0.83158200  0.05280100  0.00000000
C        C    0.72002000  0.55160200  0.94719900  0.00000000
C        C    0.44839800  0.16841800  0.94719900  0.00000000
C        C    0.16841800  0.72002000  0.05280100  0.00000000
C        C    0.83158200  0.27998000  0.94719900  0.00000000
H        H    0.32185400  0.44926900  0.05126700  0.00000000
H        H    0.55073100  0.87258500  0.05126700  0.00000000
H        H    0.67814600  0.55073100  0.94873300  0.00000000
H        H    0.44926900  0.12741500  0.94873300  0.00000000
H        H    0.12741500  0.67814600  0.05126700  0.00000000
H        H    0.87258500  0.32185400  0.94873300  0.00000000
Cl       Cl   0.29786500  0.46893200  0.19119700  0.00000000
Cl       Cl   0.53106800  0.82893300  0.19119700  0.00000000
Cl       Cl   0.70213500  0.53106800  0.80880300  0.00000000
Cl       Cl   0.46893200  0.17106700  0.80880300  0.00000000
Cl       Cl   0.17106700  0.70213500  0.19119700  0.00000000
Cl       Cl   0.82893300  0.29786500  0.80880300  0.00000000
H        H    0.00000000  0.33728800  0.18240800  0.00000000
H        H    0.66271200  0.66271200  0.18240800  0.00000000
H        H    0.00000000  0.66271200  0.81759200  0.00000000
H        H    0.33728800  0.33728800  0.81759200  0.00000000
H        H    0.33728800  0.00000000  0.18240800  0.00000000
H        H    0.66271200  0.00000000  0.81759200  0.00000000
C        C    0.60646000  0.60562300  0.50173400  0.00000000
C        C    0.39437700  0.00083700  0.50173400  0.00000000
C        C    0.39354000  0.39437700  0.49826600  0.00000000
C        C    0.60562300  0.99916300  0.49826600  0.00000000
C        C    0.99916300  0.39354000  0.50173400  0.00000000
C        C    0.00083700  0.60646000  0.49826600  0.00000000
H        H    0.56531400  0.56387900  0.50280500  0.00000000
H        H    0.43612100  0.00143500  0.50280500  0.00000000
H        H    0.43468600  0.43612100  0.49719500  0.00000000
H        H    0.56387900  0.99856500  0.49719500  0.00000000
H        H    0.99856500  0.43468600  0.50280500  0.00000000
H        H    0.00143500  0.56531400  0.49719500  0.00000000
H        H    0.43496800  0.43575700  0.00140600  0.00000000
H        H    0.56424300  0.99921100  0.00140600  0.00000000
H        H    0.56503200  0.56424300  0.99859400  0.00000000
H        H    0.43575700  0.00078900  0.99859400  0.00000000
H        H    0.00078900  0.56503200  0.00140600  0.00000000
H        H    0.99921100  0.43496800  0.99859400  0.00000000
C        C    0.00000000  0.39389600  0.00000000  0.00000000
C        C    0.60610400  0.60610400  0.00000000  0.00000000
C        C    0.00000000  0.60610400  0.00000000  0.00000000
C        C    0.39389600  0.39389600  0.00000000  0.00000000
C        C    0.39389600  0.00000000  0.00000000  0.00000000
C        C    0.60610400  0.00000000  0.00000000  0.00000000
C        C    0.45512700  0.54502300  0.59783600  0.00000000
C        C    0.45497700  0.91010400  0.59783600  0.00000000
C        C    0.54487300  0.45497700  0.40216400  0.00000000
C        C    0.54502300  0.08989600  0.40216400  0.00000000
C        C    0.08989600  0.54487300  0.59783600  0.00000000
C        C    0.91010400  0.45512700  0.40216400  0.00000000
N        N    0.48340300  0.51629700  0.62994100  0.00000000
N        N    0.48370300  0.96710600  0.62994100  0.00000000
N        N    0.51659700  0.48370300  0.37005900  0.00000000
N        N    0.51629700  0.03289400  0.37005900  0.00000000
N        N    0.03289400  0.51659700  0.62994100  0.00000000
N        N    0.96710600  0.48340300  0.37005900  0.00000000
C        C    0.54462900  0.45474700  0.09780300  0.00000000
C        C    0.54525300  0.08988200  0.09780300  0.00000000
C        C    0.45537100  0.54525300  0.90219700  0.00000000
C        C    0.45474700  0.91011800  0.90219700  0.00000000
C        C    0.91011800  0.45537100  0.09780300  0.00000000
C        C    0.08988200  0.54462900  0.90219700  0.00000000
N        N    0.51594800  0.48307700  0.12988800  0.00000000
N        N    0.51692300  0.03287100  0.12988800  0.00000000
N        N    0.48405200  0.51692300  0.87011200  0.00000000
N        N    0.48307700  0.96712900  0.87011200  0.00000000
N        N    0.96712900  0.48405200  0.12988800  0.00000000
N        N    0.03287100  0.51594800  0.87011200  0.00000000
C        C    0.55671200  0.67157300  0.75071000  0.00000000
C        C    0.32842700  0.88513900  0.75071000  0.00000000
C        C    0.44328800  0.32842700  0.24929000  0.00000000
C        C    0.67157300  0.11486100  0.24929000  0.00000000
C        C    0.11486100  0.44328800  0.75071000  0.00000000
C        C    0.88513900  0.55671200  0.24929000  0.00000000
N        N    0.50305300  0.67393100  0.75059700  0.00000000
N        N    0.32606900  0.82912200  0.75059700  0.00000000
N        N    0.49694700  0.32606900  0.24940300  0.00000000
N        N    0.67393100  0.17087800  0.24940300  0.00000000
N        N    0.17087800  0.49694700  0.75059700  0.00000000
N        N    0.82912200  0.50305300  0.24940300  0.00000000
C        C    0.67101600  0.55626300  0.25068400  0.00000000
C        C    0.44373700  0.11475300  0.25068400  0.00000000
C        C    0.32898400  0.44373700  0.74931600  0.00000000
C        C    0.55626300  0.88524700  0.74931600  0.00000000
C        C    0.88524700  0.32898400  0.25068400  0.00000000
C        C    0.11475300  0.67101600  0.74931600  0.00000000
N        N    0.67367400  0.50276500  0.25056300  0.00000000
N        N    0.49723500  0.17090900  0.25056300  0.00000000
N        N    0.32632600  0.49723500  0.74943700  0.00000000
N        N    0.50276500  0.82909100  0.74943700  0.00000000
N        N    0.82909100  0.32632600  0.25056300  0.00000000
N        N    0.17090900  0.67367400  0.74943700  0.00000000
C        C    0.57195500  0.78610600  0.60895800  0.00000000
C        C    0.21389400  0.78584900  0.60895800  0.00000000
C        C    0.42804500  0.21389400  0.39104200  0.00000000
C        C    0.78610600  0.21415100  0.39104200  0.00000000
C        C    0.21415100  0.42804500  0.60895800  0.00000000
C        C    0.78584900  0.57195500  0.39104200  0.00000000
H        H    0.57655100  0.78875800  0.66441800  0.00000000
H        H    0.21124200  0.78779300  0.66441800  0.00000000
H        H    0.42344900  0.21124200  0.33558200  0.00000000
H        H    0.78875800  0.21220700  0.33558200  0.00000000
H        H    0.21220700  0.42344900  0.66441800  0.00000000
H        H    0.78779300  0.57655100  0.33558200  0.00000000
C        C    0.42797700  0.21373500  0.10892200  0.00000000
C        C    0.78626500  0.21424200  0.10892200  0.00000000
C        C    0.57202300  0.78626500  0.89107800  0.00000000
C        C    0.21373500  0.78575800  0.89107800  0.00000000
C        C    0.78575800  0.57202300  0.10892200  0.00000000
C        C    0.21424200  0.42797700  0.89107800  0.00000000
H        H    0.42329000  0.21173300  0.16437200  0.00000000
H        H    0.78826700  0.21155700  0.16437200  0.00000000
H        H    0.57671000  0.78826700  0.83562800  0.00000000
H        H    0.21173300  0.78844300  0.83562800  0.00000000
H        H    0.78844300  0.57671000  0.16437200  0.00000000
H        H    0.21155700  0.42329000  0.83562800  0.00000000
