data_ZIF-5

_cell_length_a  19.01956332
_cell_length_b  19.01956332
_cell_length_c  19.01956332
_cell_angle_alpha  109.47122063
_cell_angle_beta  109.47122063
_cell_angle_gamma  109.47122063


_symmetry_space_group_name_Hall ' P 1'
_symmetry_space_group_name_H-M  'P 1'
_symmetry_Int_Tables_number     1

loop_
_atom_site_label
_atom_site_type_symbol
_atom_site_fract_x
_atom_site_fract_y
_atom_site_fract_z
_atom_site_charge
In       In   0.50000000  0.50000000  0.50000000  0.00000000
In       In   0.00000000  0.50000000  0.00000000  0.00000000
In       In   0.00000000  0.50000000  0.50000000  0.00000000
In       In   0.50000000  0.00000000  0.00000000  0.00000000
In       In   0.50000000  0.50000000  0.00000000  0.00000000
In       In   0.00000000  0.00000000  0.00000000  0.00000000
In       In   0.00000000  0.00000000  0.50000000  0.00000000
In       In   0.50000000  0.00000000  0.50000000  0.00000000
Zn       Zn   0.25000000  0.62500000  0.37500000  0.00000000
Zn       Zn   0.12500000  0.87500000  0.25000000  0.00000000
Zn       Zn   0.87500000  0.12500000  0.75000000  0.00000000
Zn       Zn   0.12500000  0.75000000  0.87500000  0.00000000
Zn       Zn   0.62500000  0.37500000  0.25000000  0.00000000
Zn       Zn   0.37500000  0.62500000  0.75000000  0.00000000
Zn       Zn   0.87500000  0.25000000  0.12500000  0.00000000
Zn       Zn   0.37500000  0.25000000  0.62500000  0.00000000
Zn       Zn   0.75000000  0.37500000  0.62500000  0.00000000
Zn       Zn   0.75000000  0.87500000  0.12500000  0.00000000
Zn       Zn   0.25000000  0.12500000  0.87500000  0.00000000
Zn       Zn   0.62500000  0.75000000  0.37500000  0.00000000
N        N    0.21343000  0.60643000  0.25658000  0.00000000
N        N    0.34985000  0.74342000  0.45685000  0.00000000
N        N    0.60643000  0.25658000  0.21343000  0.00000000
N        N    0.39357000  0.15015000  0.60700000  0.00000000
N        N    0.89357000  0.10700000  0.65015000  0.00000000
N        N    0.39300000  0.28657000  0.54315000  0.00000000
N        N    0.89300000  0.04315000  0.78657000  0.00000000
N        N    0.04315000  0.75658000  0.15015000  0.00000000
N        N    0.78657000  0.89300000  0.04315000  0.00000000
N        N    0.28657000  0.54315000  0.39300000  0.00000000
N        N    0.10643000  0.89300000  0.34985000  0.00000000
N        N    0.60700000  0.71343000  0.45685000  0.00000000
N        N    0.39357000  0.74342000  0.78657000  0.00000000
N        N    0.15015000  0.60700000  0.39357000  0.00000000
N        N    0.10700000  0.65015000  0.89357000  0.00000000
N        N    0.28657000  0.24342000  0.89357000  0.00000000
N        N    0.04315000  0.78657000  0.89300000  0.00000000
N        N    0.45685000  0.34985000  0.74342000  0.00000000
N        N    0.95685000  0.21343000  0.10700000  0.00000000
N        N    0.65015000  0.25658000  0.54315000  0.00000000
N        N    0.25658000  0.21343000  0.60643000  0.00000000
N        N    0.25658000  0.54315000  0.65015000  0.00000000
N        N    0.84985000  0.39300000  0.60643000  0.00000000
N        N    0.75658000  0.15015000  0.04315000  0.00000000
N        N    0.74342000  0.45685000  0.34985000  0.00000000
N        N    0.71343000  0.45685000  0.60700000  0.00000000
N        N    0.10700000  0.95685000  0.21343000  0.00000000
N        N    0.39300000  0.60643000  0.84985000  0.00000000
N        N    0.24342000  0.89357000  0.28657000  0.00000000
N        N    0.71343000  0.75658000  0.10643000  0.00000000
N        N    0.74342000  0.78657000  0.39357000  0.00000000
N        N    0.54315000  0.39300000  0.28657000  0.00000000
N        N    0.89300000  0.34985000  0.10643000  0.00000000
N        N    0.60700000  0.39357000  0.15015000  0.00000000
N        N    0.75658000  0.10643000  0.71343000  0.00000000
N        N    0.24342000  0.84985000  0.95685000  0.00000000
N        N    0.54315000  0.65015000  0.25658000  0.00000000
N        N    0.78657000  0.39357000  0.74342000  0.00000000
N        N    0.15015000  0.04315000  0.75658000  0.00000000
N        N    0.95685000  0.24342000  0.84985000  0.00000000
N        N    0.10643000  0.71343000  0.75658000  0.00000000
N        N    0.89357000  0.28657000  0.24342000  0.00000000
N        N    0.45685000  0.60700000  0.71343000  0.00000000
N        N    0.34985000  0.10643000  0.89300000  0.00000000
N        N    0.21343000  0.10700000  0.95685000  0.00000000
N        N    0.65015000  0.89357000  0.10700000  0.00000000
N        N    0.84985000  0.95685000  0.24342000  0.00000000
N        N    0.60643000  0.84985000  0.39300000  0.00000000
N        N    0.12410000  0.55488000  0.11788000  0.00000000
N        N    0.43700000  0.88212000  0.50622000  0.00000000
N        N    0.55488000  0.11788000  0.12410000  0.00000000
N        N    0.44512000  0.06300000  0.56922000  0.00000000
N        N    0.94512000  0.06922000  0.56300000  0.00000000
N        N    0.43078000  0.37590000  0.49378000  0.00000000
N        N    0.93078000  0.99378000  0.87590000  0.00000000
N        N    0.99378000  0.61788000  0.06300000  0.00000000
N        N    0.87590000  0.93078000  0.99378000  0.00000000
N        N    0.37590000  0.49378000  0.43078000  0.00000000
N        N    0.05488000  0.93078000  0.43700000  0.00000000
N        N    0.56922000  0.62410000  0.50622000  0.00000000
N        N    0.44512000  0.88212000  0.87590000  0.00000000
N        N    0.06300000  0.56922000  0.44512000  0.00000000
N        N    0.06922000  0.56300000  0.94512000  0.00000000
N        N    0.37590000  0.38212000  0.94512000  0.00000000
N        N    0.99378000  0.87590000  0.93078000  0.00000000
N        N    0.50622000  0.43700000  0.88212000  0.00000000
N        N    0.00622000  0.12410000  0.06922000  0.00000000
N        N    0.56300000  0.11788000  0.49378000  0.00000000
N        N    0.11788000  0.12410000  0.55488000  0.00000000
N        N    0.11788000  0.49378000  0.56300000  0.00000000
N        N    0.93700000  0.43078000  0.55488000  0.00000000
N        N    0.61788000  0.06300000  0.99378000  0.00000000
N        N    0.88212000  0.50622000  0.43700000  0.00000000
N        N    0.62410000  0.50622000  0.56922000  0.00000000
N        N    0.06922000  0.00622000  0.12410000  0.00000000
N        N    0.43078000  0.55488000  0.93700000  0.00000000
N        N    0.38212000  0.94512000  0.37590000  0.00000000
N        N    0.62410000  0.61788000  0.05488000  0.00000000
N        N    0.88212000  0.87590000  0.44512000  0.00000000
N        N    0.49378000  0.43078000  0.37590000  0.00000000
N        N    0.93078000  0.43700000  0.05488000  0.00000000
N        N    0.56922000  0.44512000  0.06300000  0.00000000
N        N    0.61788000  0.05488000  0.62410000  0.00000000
N        N    0.38212000  0.93700000  0.00622000  0.00000000
N        N    0.49378000  0.56300000  0.11788000  0.00000000
N        N    0.87590000  0.44512000  0.88212000  0.00000000
N        N    0.06300000  0.99378000  0.61788000  0.00000000
N        N    0.00622000  0.38212000  0.93700000  0.00000000
N        N    0.05488000  0.62410000  0.61788000  0.00000000
N        N    0.94512000  0.37590000  0.38212000  0.00000000
N        N    0.50622000  0.56922000  0.62410000  0.00000000
N        N    0.43700000  0.05488000  0.93078000  0.00000000
N        N    0.12410000  0.06922000  0.00622000  0.00000000
N        N    0.56300000  0.94512000  0.06922000  0.00000000
N        N    0.93700000  0.00622000  0.38212000  0.00000000
N        N    0.55488000  0.93700000  0.43078000  0.00000000
C        C    0.13197000  0.55916000  0.19171000  0.00000000
C        C    0.36745000  0.80829000  0.44026000  0.00000000
C        C    0.55916000  0.19171000  0.13197000  0.00000000
C        C    0.44084000  0.13255000  0.57281000  0.00000000
C        C    0.94084000  0.07281000  0.63255000  0.00000000
C        C    0.42719000  0.36803000  0.55974000  0.00000000
C        C    0.92719000  0.05974000  0.86803000  0.00000000
C        C    0.05974000  0.69171000  0.13255000  0.00000000
C        C    0.86803000  0.92719000  0.05974000  0.00000000
C        C    0.36803000  0.55974000  0.42719000  0.00000000
C        C    0.05916000  0.92719000  0.36745000  0.00000000
C        C    0.57281000  0.63197000  0.44026000  0.00000000
C        C    0.44084000  0.80829000  0.86803000  0.00000000
C        C    0.13255000  0.57281000  0.44084000  0.00000000
C        C    0.07281000  0.63255000  0.94084000  0.00000000
C        C    0.36803000  0.30829000  0.94084000  0.00000000
C        C    0.05974000  0.86803000  0.92719000  0.00000000
C        C    0.44026000  0.36745000  0.80829000  0.00000000
C        C    0.94026000  0.13197000  0.07281000  0.00000000
C        C    0.63255000  0.19171000  0.55974000  0.00000000
C        C    0.19171000  0.13197000  0.55916000  0.00000000
C        C    0.19171000  0.55974000  0.63255000  0.00000000
C        C    0.86745000  0.42719000  0.55916000  0.00000000
C        C    0.69171000  0.13255000  0.05974000  0.00000000
C        C    0.80829000  0.44026000  0.36745000  0.00000000
C        C    0.63197000  0.44026000  0.57281000  0.00000000
C        C    0.07281000  0.94026000  0.13197000  0.00000000
C        C    0.42719000  0.55916000  0.86745000  0.00000000
C        C    0.30829000  0.94084000  0.36803000  0.00000000
C        C    0.63197000  0.69171000  0.05916000  0.00000000
C        C    0.80829000  0.86803000  0.44084000  0.00000000
C        C    0.55974000  0.42719000  0.36803000  0.00000000
C        C    0.92719000  0.36745000  0.05916000  0.00000000
C        C    0.57281000  0.44084000  0.13255000  0.00000000
C        C    0.69171000  0.05916000  0.63197000  0.00000000
C        C    0.30829000  0.86745000  0.94026000  0.00000000
C        C    0.55974000  0.63255000  0.19171000  0.00000000
C        C    0.86803000  0.44084000  0.80829000  0.00000000
C        C    0.13255000  0.05974000  0.69171000  0.00000000
C        C    0.94026000  0.30829000  0.86745000  0.00000000
C        C    0.05916000  0.63197000  0.69171000  0.00000000
C        C    0.94084000  0.36803000  0.30829000  0.00000000
C        C    0.44026000  0.57281000  0.63197000  0.00000000
C        C    0.36745000  0.05916000  0.92719000  0.00000000
C        C    0.13197000  0.07281000  0.94026000  0.00000000
C        C    0.63255000  0.94084000  0.07281000  0.00000000
C        C    0.86745000  0.94026000  0.30829000  0.00000000
C        C    0.55916000  0.86745000  0.42719000  0.00000000
C        C    0.20686000  0.60291000  0.13673000  0.00000000
C        C    0.46618000  0.86327000  0.57013000  0.00000000
C        C    0.60291000  0.13673000  0.20686000  0.00000000
C        C    0.39709000  0.03382000  0.60395000  0.00000000
C        C    0.89709000  0.10395000  0.53382000  0.00000000
C        C    0.39605000  0.29314000  0.42987000  0.00000000
C        C    0.89605000  0.92987000  0.79314000  0.00000000
C        C    0.92987000  0.63673000  0.03382000  0.00000000
C        C    0.79314000  0.89605000  0.92987000  0.00000000
C        C    0.29314000  0.42987000  0.39605000  0.00000000
C        C    0.10291000  0.89605000  0.46618000  0.00000000
C        C    0.60395000  0.70686000  0.57013000  0.00000000
C        C    0.39709000  0.86327000  0.79314000  0.00000000
C        C    0.03382000  0.60395000  0.39709000  0.00000000
C        C    0.10395000  0.53382000  0.89709000  0.00000000
C        C    0.29314000  0.36327000  0.89709000  0.00000000
C        C    0.92987000  0.79314000  0.89605000  0.00000000
C        C    0.57013000  0.46618000  0.86327000  0.00000000
C        C    0.07013000  0.20686000  0.10395000  0.00000000
C        C    0.53382000  0.13673000  0.42987000  0.00000000
C        C    0.13673000  0.20686000  0.60291000  0.00000000
C        C    0.13673000  0.42987000  0.53382000  0.00000000
C        C    0.96618000  0.39605000  0.60291000  0.00000000
C        C    0.63673000  0.03382000  0.92987000  0.00000000
C        C    0.86327000  0.57013000  0.46618000  0.00000000
C        C    0.70686000  0.57013000  0.60395000  0.00000000
C        C    0.10395000  0.07013000  0.20686000  0.00000000
C        C    0.39605000  0.60291000  0.96618000  0.00000000
C        C    0.36327000  0.89709000  0.29314000  0.00000000
C        C    0.70686000  0.63673000  0.10291000  0.00000000
C        C    0.86327000  0.79314000  0.39709000  0.00000000
C        C    0.42987000  0.39605000  0.29314000  0.00000000
C        C    0.89605000  0.46618000  0.10291000  0.00000000
C        C    0.60395000  0.39709000  0.03382000  0.00000000
C        C    0.63673000  0.10291000  0.70686000  0.00000000
C        C    0.36327000  0.96618000  0.07013000  0.00000000
C        C    0.42987000  0.53382000  0.13673000  0.00000000
C        C    0.79314000  0.39709000  0.86327000  0.00000000
C        C    0.03382000  0.92987000  0.63673000  0.00000000
C        C    0.07013000  0.36327000  0.96618000  0.00000000
C        C    0.10291000  0.70686000  0.63673000  0.00000000
C        C    0.89709000  0.29314000  0.36327000  0.00000000
C        C    0.57013000  0.60395000  0.70686000  0.00000000
C        C    0.46618000  0.10291000  0.89605000  0.00000000
C        C    0.20686000  0.10395000  0.07013000  0.00000000
C        C    0.53382000  0.89709000  0.10395000  0.00000000
C        C    0.96618000  0.07013000  0.36327000  0.00000000
C        C    0.60291000  0.96618000  0.39605000  0.00000000
C        C    0.26112000  0.63403000  0.22079000  0.00000000
C        C    0.41324000  0.77921000  0.54033000  0.00000000
C        C    0.63403000  0.22079000  0.26112000  0.00000000
C        C    0.36597000  0.08676000  0.62709000  0.00000000
C        C    0.86597000  0.12709000  0.58676000  0.00000000
C        C    0.37291000  0.23888000  0.45967000  0.00000000
C        C    0.87291000  0.95967000  0.73888000  0.00000000
C        C    0.95967000  0.72079000  0.08676000  0.00000000
C        C    0.73888000  0.87291000  0.95967000  0.00000000
C        C    0.23888000  0.45967000  0.37291000  0.00000000
C        C    0.13403000  0.87291000  0.41324000  0.00000000
C        C    0.62709000  0.76112000  0.54033000  0.00000000
C        C    0.36597000  0.77921000  0.73888000  0.00000000
C        C    0.08676000  0.62709000  0.36597000  0.00000000
C        C    0.12709000  0.58676000  0.86597000  0.00000000
C        C    0.23888000  0.27921000  0.86597000  0.00000000
C        C    0.95967000  0.73888000  0.87291000  0.00000000
C        C    0.54033000  0.41324000  0.77921000  0.00000000
C        C    0.04033000  0.26112000  0.12709000  0.00000000
C        C    0.58676000  0.22079000  0.45967000  0.00000000
C        C    0.22079000  0.26112000  0.63403000  0.00000000
C        C    0.22079000  0.45967000  0.58676000  0.00000000
C        C    0.91324000  0.37291000  0.63403000  0.00000000
C        C    0.72079000  0.08676000  0.95967000  0.00000000
C        C    0.77921000  0.54033000  0.41324000  0.00000000
C        C    0.76112000  0.54033000  0.62709000  0.00000000
C        C    0.12709000  0.04033000  0.26112000  0.00000000
C        C    0.37291000  0.63403000  0.91324000  0.00000000
C        C    0.27921000  0.86597000  0.23888000  0.00000000
C        C    0.76112000  0.72079000  0.13403000  0.00000000
C        C    0.77921000  0.73888000  0.36597000  0.00000000
C        C    0.45967000  0.37291000  0.23888000  0.00000000
C        C    0.87291000  0.41324000  0.13403000  0.00000000
C        C    0.62709000  0.36597000  0.08676000  0.00000000
C        C    0.72079000  0.13403000  0.76112000  0.00000000
C        C    0.27921000  0.91324000  0.04033000  0.00000000
C        C    0.45967000  0.58676000  0.22079000  0.00000000
C        C    0.73888000  0.36597000  0.77921000  0.00000000
C        C    0.08676000  0.95967000  0.72079000  0.00000000
C        C    0.04033000  0.27921000  0.91324000  0.00000000
C        C    0.13403000  0.76112000  0.72079000  0.00000000
C        C    0.86597000  0.23888000  0.27921000  0.00000000
C        C    0.54033000  0.62709000  0.76112000  0.00000000
C        C    0.41324000  0.13403000  0.87291000  0.00000000
C        C    0.26112000  0.12709000  0.04033000  0.00000000
C        C    0.58676000  0.86597000  0.12709000  0.00000000
C        C    0.91324000  0.04033000  0.27921000  0.00000000
C        C    0.63403000  0.91324000  0.37291000  0.00000000
H        H    0.08790000  0.53230000  0.19920000  0.00000000
H        H    0.33310000  0.80080000  0.38870000  0.00000000
H        H    0.53230000  0.19920000  0.08790000  0.00000000
H        H    0.46770000  0.16690000  0.55560000  0.00000000
H        H    0.96770000  0.05560000  0.66690000  0.00000000
H        H    0.44440000  0.41210000  0.61130000  0.00000000
H        H    0.94440000  0.11130000  0.91210000  0.00000000
H        H    0.11130000  0.69920000  0.16690000  0.00000000
H        H    0.91210000  0.94440000  0.11130000  0.00000000
H        H    0.41210000  0.61130000  0.44440000  0.00000000
H        H    0.03230000  0.94440000  0.33310000  0.00000000
H        H    0.55560000  0.58790000  0.38870000  0.00000000
H        H    0.46770000  0.80080000  0.91210000  0.00000000
H        H    0.16690000  0.55560000  0.46770000  0.00000000
H        H    0.05560000  0.66690000  0.96770000  0.00000000
H        H    0.41210000  0.30080000  0.96770000  0.00000000
H        H    0.11130000  0.91210000  0.94440000  0.00000000
H        H    0.38870000  0.33310000  0.80080000  0.00000000
H        H    0.88870000  0.08790000  0.05560000  0.00000000
H        H    0.66690000  0.19920000  0.61130000  0.00000000
H        H    0.19920000  0.08790000  0.53230000  0.00000000
H        H    0.19920000  0.61130000  0.66690000  0.00000000
H        H    0.83310000  0.44440000  0.53230000  0.00000000
H        H    0.69920000  0.16690000  0.11130000  0.00000000
H        H    0.80080000  0.38870000  0.33310000  0.00000000
H        H    0.58790000  0.38870000  0.55560000  0.00000000
H        H    0.05560000  0.88870000  0.08790000  0.00000000
H        H    0.44440000  0.53230000  0.83310000  0.00000000
H        H    0.30080000  0.96770000  0.41210000  0.00000000
H        H    0.58790000  0.69920000  0.03230000  0.00000000
H        H    0.80080000  0.91210000  0.46770000  0.00000000
H        H    0.61130000  0.44440000  0.41210000  0.00000000
H        H    0.94440000  0.33310000  0.03230000  0.00000000
H        H    0.55560000  0.46770000  0.16690000  0.00000000
H        H    0.69920000  0.03230000  0.58790000  0.00000000
H        H    0.30080000  0.83310000  0.88870000  0.00000000
H        H    0.61130000  0.66690000  0.19920000  0.00000000
H        H    0.91210000  0.46770000  0.80080000  0.00000000
H        H    0.16690000  0.11130000  0.69920000  0.00000000
H        H    0.88870000  0.30080000  0.83310000  0.00000000
H        H    0.03230000  0.58790000  0.69920000  0.00000000
H        H    0.96770000  0.41210000  0.30080000  0.00000000
H        H    0.38870000  0.55560000  0.58790000  0.00000000
H        H    0.33310000  0.03230000  0.94440000  0.00000000
H        H    0.08790000  0.05560000  0.88870000  0.00000000
H        H    0.66690000  0.96770000  0.05560000  0.00000000
H        H    0.83310000  0.88870000  0.30080000  0.00000000
H        H    0.53230000  0.83310000  0.44440000  0.00000000
H        H    0.21580000  0.61140000  0.09560000  0.00000000
H        H    0.51580000  0.90440000  0.62020000  0.00000000
H        H    0.61140000  0.09560000  0.21580000  0.00000000
H        H    0.38860000  0.98420000  0.60440000  0.00000000
H        H    0.88860000  0.10440000  0.48420000  0.00000000
H        H    0.39560000  0.28420000  0.37980000  0.00000000
H        H    0.89560000  0.87980000  0.78420000  0.00000000
H        H    0.87980000  0.59560000  0.98420000  0.00000000
H        H    0.78420000  0.89560000  0.87980000  0.00000000
H        H    0.28420000  0.37980000  0.39560000  0.00000000
H        H    0.11140000  0.89560000  0.51580000  0.00000000
H        H    0.60440000  0.71580000  0.62020000  0.00000000
H        H    0.38860000  0.90440000  0.78420000  0.00000000
H        H    0.98420000  0.60440000  0.38860000  0.00000000
H        H    0.10440000  0.48420000  0.88860000  0.00000000
H        H    0.28420000  0.40440000  0.88860000  0.00000000
H        H    0.87980000  0.78420000  0.89560000  0.00000000
H        H    0.62020000  0.51580000  0.90440000  0.00000000
H        H    0.12020000  0.21580000  0.10440000  0.00000000
H        H    0.48420000  0.09560000  0.37980000  0.00000000
H        H    0.09560000  0.21580000  0.61140000  0.00000000
H        H    0.09560000  0.37980000  0.48420000  0.00000000
H        H    0.01580000  0.39560000  0.61140000  0.00000000
H        H    0.59560000  0.98420000  0.87980000  0.00000000
H        H    0.90440000  0.62020000  0.51580000  0.00000000
H        H    0.71580000  0.62020000  0.60440000  0.00000000
H        H    0.10440000  0.12020000  0.21580000  0.00000000
H        H    0.39560000  0.61140000  0.01580000  0.00000000
H        H    0.40440000  0.88860000  0.28420000  0.00000000
H        H    0.71580000  0.59560000  0.11140000  0.00000000
H        H    0.90440000  0.78420000  0.38860000  0.00000000
H        H    0.37980000  0.39560000  0.28420000  0.00000000
H        H    0.89560000  0.51580000  0.11140000  0.00000000
H        H    0.60440000  0.38860000  0.98420000  0.00000000
H        H    0.59560000  0.11140000  0.71580000  0.00000000
H        H    0.40440000  0.01580000  0.12020000  0.00000000
H        H    0.37980000  0.48420000  0.09560000  0.00000000
H        H    0.78420000  0.38860000  0.90440000  0.00000000
H        H    0.98420000  0.87980000  0.59560000  0.00000000
H        H    0.12020000  0.40440000  0.01580000  0.00000000
H        H    0.11140000  0.71580000  0.59560000  0.00000000
H        H    0.88860000  0.28420000  0.40440000  0.00000000
H        H    0.62020000  0.60440000  0.71580000  0.00000000
H        H    0.51580000  0.11140000  0.89560000  0.00000000
H        H    0.21580000  0.10440000  0.12020000  0.00000000
H        H    0.48420000  0.88860000  0.10440000  0.00000000
H        H    0.01580000  0.12020000  0.40440000  0.00000000
H        H    0.61140000  0.01580000  0.39560000  0.00000000
H        H    0.31910000  0.66950000  0.25320000  0.00000000
H        H    0.41630000  0.74680000  0.56590000  0.00000000
H        H    0.66950000  0.25320000  0.31910000  0.00000000
H        H    0.33050000  0.08370000  0.64960000  0.00000000
H        H    0.83050000  0.14960000  0.58370000  0.00000000
H        H    0.35040000  0.18090000  0.43410000  0.00000000
H        H    0.85040000  0.93410000  0.68090000  0.00000000
H        H    0.93410000  0.75320000  0.08370000  0.00000000
H        H    0.68090000  0.85040000  0.93410000  0.00000000
H        H    0.18090000  0.43410000  0.35040000  0.00000000
H        H    0.16950000  0.85040000  0.41630000  0.00000000
H        H    0.64960000  0.81910000  0.56590000  0.00000000
H        H    0.33050000  0.74680000  0.68090000  0.00000000
H        H    0.08370000  0.64960000  0.33050000  0.00000000
H        H    0.14960000  0.58370000  0.83050000  0.00000000
H        H    0.18090000  0.24680000  0.83050000  0.00000000
H        H    0.93410000  0.68090000  0.85040000  0.00000000
H        H    0.56590000  0.41630000  0.74680000  0.00000000
H        H    0.06590000  0.31910000  0.14960000  0.00000000
H        H    0.58370000  0.25320000  0.43410000  0.00000000
H        H    0.25320000  0.31910000  0.66950000  0.00000000
H        H    0.25320000  0.43410000  0.58370000  0.00000000
H        H    0.91630000  0.35040000  0.66950000  0.00000000
H        H    0.75320000  0.08370000  0.93410000  0.00000000
H        H    0.74680000  0.56590000  0.41630000  0.00000000
H        H    0.81910000  0.56590000  0.64960000  0.00000000
H        H    0.14960000  0.06590000  0.31910000  0.00000000
H        H    0.35040000  0.66950000  0.91630000  0.00000000
H        H    0.24680000  0.83050000  0.18090000  0.00000000
H        H    0.81910000  0.75320000  0.16950000  0.00000000
H        H    0.74680000  0.68090000  0.33050000  0.00000000
H        H    0.43410000  0.35040000  0.18090000  0.00000000
H        H    0.85040000  0.41630000  0.16950000  0.00000000
H        H    0.64960000  0.33050000  0.08370000  0.00000000
H        H    0.75320000  0.16950000  0.81910000  0.00000000
H        H    0.24680000  0.91630000  0.06590000  0.00000000
H        H    0.43410000  0.58370000  0.25320000  0.00000000
H        H    0.68090000  0.33050000  0.74680000  0.00000000
H        H    0.08370000  0.93410000  0.75320000  0.00000000
H        H    0.06590000  0.24680000  0.91630000  0.00000000
H        H    0.16950000  0.81910000  0.75320000  0.00000000
H        H    0.83050000  0.18090000  0.24680000  0.00000000
H        H    0.56590000  0.64960000  0.81910000  0.00000000
H        H    0.41630000  0.16950000  0.85040000  0.00000000
H        H    0.31910000  0.14960000  0.06590000  0.00000000
H        H    0.58370000  0.83050000  0.14960000  0.00000000
H        H    0.91630000  0.06590000  0.24680000  0.00000000
H        H    0.66950000  0.91630000  0.35040000  0.00000000
