data_ZIF-20

_cell_length_a  45.47250000
_cell_length_b  45.47250000
_cell_length_c  45.47250000
_cell_angle_alpha  90.00000000
_cell_angle_beta  90.00000000
_cell_angle_gamma  90.00000000


_symmetry_space_group_name_Hall ' P 1'
_symmetry_space_group_name_H-M  'P 1'
_symmetry_Int_Tables_number     1

loop_
_atom_site_label
_atom_site_type_symbol
_atom_site_fract_x
_atom_site_fract_y
_atom_site_fract_z
_atom_site_charge
C        C    0.29710000  0.20290000  0.06891000  0.00000000
C        C    0.70290000  0.79710000  0.06891000  0.00000000
C        C    0.29710000  0.79710000  0.93109000  0.00000000
C        C    0.70290000  0.20290000  0.93109000  0.00000000
C        C    0.29880000  0.22289000  0.11080000  0.00000000
C        C    0.70120000  0.77711000  0.11080000  0.00000000
C        C    0.29880000  0.77711000  0.88920000  0.00000000
C        C    0.70120000  0.22289000  0.88920000  0.00000000
C        C    0.30460000  0.23921000  0.13480000  0.00000000
C        C    0.69540000  0.76079000  0.13480000  0.00000000
C        C    0.30460000  0.76079000  0.86520000  0.00000000
C        C    0.69540000  0.23921000  0.86520000  0.00000000
N        N    0.28749000  0.23279000  0.15811000  0.00000000
N        N    0.71251000  0.76721000  0.15811000  0.00000000
N        N    0.28749000  0.76721000  0.84189000  0.00000000
N        N    0.71251000  0.23279000  0.84189000  0.00000000
C        C    0.33790000  0.24840000  0.00000000  0.00000000
C        C    0.66210000  0.75160000  0.00000000  0.00000000
C        C    0.33790000  0.75160000  0.00000000  0.00000000
C        C    0.66210000  0.24840000  0.00000000  0.00000000
C        C    0.36059000  0.21049000  0.01510000  0.00000000
C        C    0.63941000  0.78951000  0.01510000  0.00000000
C        C    0.36059000  0.78951000  0.98490000  0.00000000
C        C    0.63941000  0.21049000  0.98490000  0.00000000
C        C    0.37339000  0.18900000  0.03100000  0.00000000
C        C    0.62661000  0.81100000  0.03100000  0.00000000
C        C    0.37339000  0.81100000  0.96900000  0.00000000
C        C    0.62661000  0.18900000  0.96900000  0.00000000
N        N    0.38520000  0.16750000  0.01400000  0.00000000
N        N    0.61480000  0.83250000  0.01400000  0.00000000
N        N    0.38520000  0.83250000  0.98600000  0.00000000
N        N    0.61480000  0.16750000  0.98600000  0.00000000
C        C    0.38729000  0.24539000  0.11269000  0.00000000
C        C    0.61271000  0.75461000  0.11269000  0.00000000
C        C    0.38729000  0.75461000  0.88731000  0.00000000
C        C    0.61271000  0.24539000  0.88731000  0.00000000
C        C    0.40719000  0.25641000  0.07150000  0.00000000
C        C    0.59281000  0.74359000  0.07150000  0.00000000
C        C    0.40719000  0.74359000  0.92850000  0.00000000
C        C    0.59281000  0.25641000  0.92850000  0.00000000
C        C    0.41300000  0.26419000  0.04300000  0.00000000
C        C    0.58700000  0.73581000  0.04300000  0.00000000
C        C    0.41300000  0.73581000  0.95700000  0.00000000
C        C    0.58700000  0.26419000  0.95700000  0.00000000
N        N    0.44200000  0.27101000  0.03779000  0.00000000
N        N    0.55800000  0.72899000  0.03779000  0.00000000
N        N    0.44200000  0.72899000  0.96221000  0.00000000
N        N    0.55800000  0.27101000  0.96221000  0.00000000
C        C    0.29620000  0.29619000  0.06401000  0.00000000
C        C    0.70380000  0.70381000  0.06401000  0.00000000
C        C    0.29620000  0.70381000  0.93599000  0.00000000
C        C    0.70380000  0.29619000  0.93599000  0.00000000
C        C    0.33801000  0.31671000  0.06950000  0.00000000
C        C    0.66199000  0.68329000  0.06950000  0.00000000
C        C    0.33801000  0.68329000  0.93050000  0.00000000
C        C    0.66199000  0.31671000  0.93050000  0.00000000
C        C    0.36730000  0.32320000  0.07289000  0.00000000
C        C    0.63270000  0.67680000  0.07289000  0.00000000
C        C    0.36730000  0.67680000  0.92711000  0.00000000
C        C    0.63270000  0.32320000  0.92711000  0.00000000
N        N    0.37260000  0.35220000  0.07540000  0.00000000
N        N    0.62740000  0.64780000  0.07540000  0.00000000
N        N    0.37260000  0.64780000  0.92460000  0.00000000
N        N    0.62740000  0.35220000  0.92460000  0.00000000
N        N    0.31179000  0.22340000  0.08380000  0.00000000
N        N    0.68821000  0.77660000  0.08380000  0.00000000
N        N    0.31179000  0.77660000  0.91620000  0.00000000
N        N    0.68821000  0.22340000  0.91620000  0.00000000
N        N    0.34590000  0.23479000  0.02491000  0.00000000
N        N    0.65410000  0.76521000  0.02491000  0.00000000
N        N    0.34590000  0.76521000  0.97509000  0.00000000
N        N    0.65410000  0.23479000  0.97509000  0.00000000
N        N    0.38060000  0.24911000  0.08430000  0.00000000
N        N    0.61940000  0.75089000  0.08430000  0.00000000
N        N    0.38060000  0.75089000  0.91570000  0.00000000
N        N    0.61940000  0.24911000  0.91570000  0.00000000
N        N    0.32479000  0.28939000  0.06570000  0.00000000
N        N    0.67521000  0.71061000  0.06570000  0.00000000
N        N    0.32479000  0.71061000  0.93430000  0.00000000
N        N    0.67521000  0.28939000  0.93430000  0.00000000
Zn       Zn   0.34170000  0.24950000  0.06559000  0.00000000
Zn       Zn   0.65830000  0.75050000  0.06559000  0.00000000
Zn       Zn   0.34170000  0.75050000  0.93441000  0.00000000
Zn       Zn   0.65830000  0.24950000  0.93441000  0.00000000
H        H    0.30100000  0.19901000  0.04881000  0.00000000
H        H    0.69900000  0.80099000  0.04881000  0.00000000
H        H    0.30100000  0.80099000  0.95119000  0.00000000
H        H    0.69900000  0.19901000  0.95119000  0.00000000
H        H    0.31949000  0.25379000  0.13530000  0.00000000
H        H    0.68051000  0.74621000  0.13530000  0.00000000
H        H    0.31949000  0.74621000  0.86470000  0.00000000
H        H    0.68051000  0.25379000  0.86470000  0.00000000
H        H    0.32721000  0.26630000  0.00000000  0.00000000
H        H    0.67279000  0.73370000  0.00000000  0.00000000
H        H    0.32721000  0.73370000  0.00000000  0.00000000
H        H    0.67279000  0.26630000  0.00000000  0.00000000
H        H    0.37401000  0.18889000  0.05180000  0.00000000
H        H    0.62599000  0.81111000  0.05180000  0.00000000
H        H    0.37401000  0.81111000  0.94820000  0.00000000
H        H    0.62599000  0.18889000  0.94820000  0.00000000
H        H    0.37291000  0.24060000  0.12710000  0.00000000
H        H    0.62709000  0.75940000  0.12710000  0.00000000
H        H    0.37291000  0.75940000  0.87290000  0.00000000
H        H    0.62709000  0.24060000  0.87290000  0.00000000
H        H    0.39831000  0.26481000  0.02820000  0.00000000
H        H    0.60169000  0.73519000  0.02820000  0.00000000
H        H    0.39831000  0.73519000  0.97180000  0.00000000
H        H    0.60169000  0.26481000  0.97180000  0.00000000
H        H    0.28151000  0.28150000  0.06161000  0.00000000
H        H    0.71849000  0.71850000  0.06161000  0.00000000
H        H    0.28151000  0.71850000  0.93839000  0.00000000
H        H    0.71849000  0.28150000  0.93839000  0.00000000
H        H    0.38230000  0.30870000  0.07351000  0.00000000
H        H    0.61770000  0.69130000  0.07351000  0.00000000
H        H    0.38230000  0.69130000  0.92649000  0.00000000
H        H    0.61770000  0.30870000  0.92649000  0.00000000
C        C    0.00000000  0.66209000  0.24840000  0.00000000
C        C    0.00000000  0.33791000  0.75160000  0.00000000
H        H    0.00000000  0.67280000  0.26630000  0.00000000
H        H    0.00000000  0.32720000  0.73370000  0.00000000
C        C    0.93109000  0.70290000  0.20290000  0.00000000
C        C    0.06891000  0.29710000  0.20290000  0.00000000
C        C    0.93109000  0.29710000  0.79710000  0.00000000
C        C    0.06891000  0.70290000  0.79710000  0.00000000
C        C    0.88920000  0.70120000  0.22289000  0.00000000
C        C    0.11080000  0.29880000  0.22289000  0.00000000
C        C    0.88920000  0.29880000  0.77711000  0.00000000
C        C    0.11080000  0.70120000  0.77711000  0.00000000
C        C    0.86520000  0.69540000  0.23921000  0.00000000
C        C    0.13480000  0.30460000  0.23921000  0.00000000
C        C    0.86520000  0.30460000  0.76079000  0.00000000
C        C    0.13480000  0.69540000  0.76079000  0.00000000
N        N    0.84189000  0.71251000  0.23279000  0.00000000
N        N    0.15811000  0.28749000  0.23279000  0.00000000
N        N    0.84189000  0.28749000  0.76721000  0.00000000
N        N    0.15811000  0.71251000  0.76721000  0.00000000
C        C    0.00000000  0.33790000  0.24840000  0.00000000
C        C    0.00000000  0.66210000  0.75160000  0.00000000
C        C    0.98490000  0.63941000  0.21049000  0.00000000
C        C    0.01510000  0.36059000  0.21049000  0.00000000
C        C    0.98490000  0.36059000  0.78951000  0.00000000
C        C    0.01510000  0.63941000  0.78951000  0.00000000
C        C    0.96900000  0.62661000  0.18900000  0.00000000
C        C    0.03100000  0.37339000  0.18900000  0.00000000
C        C    0.96900000  0.37339000  0.81100000  0.00000000
C        C    0.03100000  0.62661000  0.81100000  0.00000000
N        N    0.98600000  0.61480000  0.16750000  0.00000000
N        N    0.01400000  0.38520000  0.16750000  0.00000000
N        N    0.98600000  0.38520000  0.83250000  0.00000000
N        N    0.01400000  0.61480000  0.83250000  0.00000000
C        C    0.88731000  0.61271000  0.24539000  0.00000000
C        C    0.11269000  0.38729000  0.24539000  0.00000000
C        C    0.88731000  0.38729000  0.75461000  0.00000000
C        C    0.11269000  0.61271000  0.75461000  0.00000000
C        C    0.92850000  0.59281000  0.25641000  0.00000000
C        C    0.07150000  0.40719000  0.25641000  0.00000000
C        C    0.92850000  0.40719000  0.74359000  0.00000000
C        C    0.07150000  0.59281000  0.74359000  0.00000000
C        C    0.95700000  0.58700000  0.26419000  0.00000000
C        C    0.04300000  0.41300000  0.26419000  0.00000000
C        C    0.95700000  0.41300000  0.73581000  0.00000000
C        C    0.04300000  0.58700000  0.73581000  0.00000000
N        N    0.96221000  0.55800000  0.27101000  0.00000000
N        N    0.03779000  0.44200000  0.27101000  0.00000000
N        N    0.96221000  0.44200000  0.72899000  0.00000000
N        N    0.03779000  0.55800000  0.72899000  0.00000000
C        C    0.93599000  0.70380000  0.29619000  0.00000000
C        C    0.06401000  0.29620000  0.29619000  0.00000000
C        C    0.93599000  0.29620000  0.70381000  0.00000000
C        C    0.06401000  0.70380000  0.70381000  0.00000000
C        C    0.93050000  0.66199000  0.31671000  0.00000000
C        C    0.06950000  0.33801000  0.31671000  0.00000000
C        C    0.93050000  0.33801000  0.68329000  0.00000000
C        C    0.06950000  0.66199000  0.68329000  0.00000000
C        C    0.92711000  0.63270000  0.32320000  0.00000000
C        C    0.07289000  0.36730000  0.32320000  0.00000000
C        C    0.92711000  0.36730000  0.67680000  0.00000000
C        C    0.07289000  0.63270000  0.67680000  0.00000000
N        N    0.92460000  0.62740000  0.35220000  0.00000000
N        N    0.07540000  0.37260000  0.35220000  0.00000000
N        N    0.92460000  0.37260000  0.64780000  0.00000000
N        N    0.07540000  0.62740000  0.64780000  0.00000000
N        N    0.91620000  0.68821000  0.22340000  0.00000000
N        N    0.08380000  0.31179000  0.22340000  0.00000000
N        N    0.91620000  0.31179000  0.77660000  0.00000000
N        N    0.08380000  0.68821000  0.77660000  0.00000000
N        N    0.97509000  0.65410000  0.23479000  0.00000000
N        N    0.02491000  0.34590000  0.23479000  0.00000000
N        N    0.97509000  0.34590000  0.76521000  0.00000000
N        N    0.02491000  0.65410000  0.76521000  0.00000000
N        N    0.91570000  0.61940000  0.24911000  0.00000000
N        N    0.08430000  0.38060000  0.24911000  0.00000000
N        N    0.91570000  0.38060000  0.75089000  0.00000000
N        N    0.08430000  0.61940000  0.75089000  0.00000000
N        N    0.93430000  0.67521000  0.28939000  0.00000000
N        N    0.06570000  0.32479000  0.28939000  0.00000000
N        N    0.93430000  0.32479000  0.71061000  0.00000000
N        N    0.06570000  0.67521000  0.71061000  0.00000000
Zn       Zn   0.93441000  0.65830000  0.24950000  0.00000000
Zn       Zn   0.06559000  0.34170000  0.24950000  0.00000000
Zn       Zn   0.93441000  0.34170000  0.75050000  0.00000000
Zn       Zn   0.06559000  0.65830000  0.75050000  0.00000000
H        H    0.95119000  0.69900000  0.19901000  0.00000000
H        H    0.04881000  0.30100000  0.19901000  0.00000000
H        H    0.95119000  0.30100000  0.80099000  0.00000000
H        H    0.04881000  0.69900000  0.80099000  0.00000000
H        H    0.86470000  0.68051000  0.25379000  0.00000000
H        H    0.13530000  0.31949000  0.25379000  0.00000000
H        H    0.86470000  0.31949000  0.74621000  0.00000000
H        H    0.13530000  0.68051000  0.74621000  0.00000000
H        H    0.00000000  0.32721000  0.26630000  0.00000000
H        H    0.00000000  0.67279000  0.73370000  0.00000000
H        H    0.94820000  0.62599000  0.18889000  0.00000000
H        H    0.05180000  0.37401000  0.18889000  0.00000000
H        H    0.94820000  0.37401000  0.81111000  0.00000000
H        H    0.05180000  0.62599000  0.81111000  0.00000000
H        H    0.87290000  0.62709000  0.24060000  0.00000000
H        H    0.12710000  0.37291000  0.24060000  0.00000000
H        H    0.87290000  0.37291000  0.75940000  0.00000000
H        H    0.12710000  0.62709000  0.75940000  0.00000000
H        H    0.97180000  0.60169000  0.26481000  0.00000000
H        H    0.02820000  0.39831000  0.26481000  0.00000000
H        H    0.97180000  0.39831000  0.73519000  0.00000000
H        H    0.02820000  0.60169000  0.73519000  0.00000000
H        H    0.93839000  0.71849000  0.28150000  0.00000000
H        H    0.06161000  0.28151000  0.28150000  0.00000000
H        H    0.93839000  0.28151000  0.71850000  0.00000000
H        H    0.06161000  0.71849000  0.71850000  0.00000000
H        H    0.92649000  0.61770000  0.30870000  0.00000000
H        H    0.07351000  0.38230000  0.30870000  0.00000000
H        H    0.92649000  0.38230000  0.69130000  0.00000000
H        H    0.07351000  0.61770000  0.69130000  0.00000000
C        C    0.75160000  0.00000000  0.33791000  0.00000000
C        C    0.24840000  0.00000000  0.66209000  0.00000000
H        H    0.73370000  0.00000000  0.32720000  0.00000000
H        H    0.26630000  0.00000000  0.67280000  0.00000000
C        C    0.79710000  0.06891000  0.70290000  0.00000000
C        C    0.20290000  0.93109000  0.70290000  0.00000000
C        C    0.79710000  0.93109000  0.29710000  0.00000000
C        C    0.20290000  0.06891000  0.29710000  0.00000000
C        C    0.77711000  0.11080000  0.70120000  0.00000000
C        C    0.22289000  0.88920000  0.70120000  0.00000000
C        C    0.77711000  0.88920000  0.29880000  0.00000000
C        C    0.22289000  0.11080000  0.29880000  0.00000000
C        C    0.76079000  0.13480000  0.69540000  0.00000000
C        C    0.23921000  0.86520000  0.69540000  0.00000000
C        C    0.76079000  0.86520000  0.30460000  0.00000000
C        C    0.23921000  0.13480000  0.30460000  0.00000000
N        N    0.76721000  0.15811000  0.71251000  0.00000000
N        N    0.23279000  0.84189000  0.71251000  0.00000000
N        N    0.76721000  0.84189000  0.28749000  0.00000000
N        N    0.23279000  0.15811000  0.28749000  0.00000000
C        C    0.75160000  0.00000000  0.66210000  0.00000000
C        C    0.24840000  0.00000000  0.33790000  0.00000000
C        C    0.78951000  0.01510000  0.63941000  0.00000000
C        C    0.21049000  0.98490000  0.63941000  0.00000000
C        C    0.78951000  0.98490000  0.36059000  0.00000000
C        C    0.21049000  0.01510000  0.36059000  0.00000000
C        C    0.81100000  0.03100000  0.62661000  0.00000000
C        C    0.18900000  0.96900000  0.62661000  0.00000000
C        C    0.81100000  0.96900000  0.37339000  0.00000000
C        C    0.18900000  0.03100000  0.37339000  0.00000000
N        N    0.83250000  0.01400000  0.61480000  0.00000000
N        N    0.16750000  0.98600000  0.61480000  0.00000000
N        N    0.83250000  0.98600000  0.38520000  0.00000000
N        N    0.16750000  0.01400000  0.38520000  0.00000000
C        C    0.75461000  0.11269000  0.61271000  0.00000000
C        C    0.24539000  0.88731000  0.61271000  0.00000000
C        C    0.75461000  0.88731000  0.38729000  0.00000000
C        C    0.24539000  0.11269000  0.38729000  0.00000000
C        C    0.74359000  0.07150000  0.59281000  0.00000000
C        C    0.25641000  0.92850000  0.59281000  0.00000000
C        C    0.74359000  0.92850000  0.40719000  0.00000000
C        C    0.25641000  0.07150000  0.40719000  0.00000000
C        C    0.73581000  0.04300000  0.58700000  0.00000000
C        C    0.26419000  0.95700000  0.58700000  0.00000000
C        C    0.73581000  0.95700000  0.41300000  0.00000000
C        C    0.26419000  0.04300000  0.41300000  0.00000000
N        N    0.72899000  0.03779000  0.55800000  0.00000000
N        N    0.27101000  0.96221000  0.55800000  0.00000000
N        N    0.72899000  0.96221000  0.44200000  0.00000000
N        N    0.27101000  0.03779000  0.44200000  0.00000000
C        C    0.70381000  0.06401000  0.70380000  0.00000000
C        C    0.29619000  0.93599000  0.70380000  0.00000000
C        C    0.70381000  0.93599000  0.29620000  0.00000000
C        C    0.29619000  0.06401000  0.29620000  0.00000000
C        C    0.68329000  0.06950000  0.66199000  0.00000000
C        C    0.31671000  0.93050000  0.66199000  0.00000000
C        C    0.68329000  0.93050000  0.33801000  0.00000000
C        C    0.31671000  0.06950000  0.33801000  0.00000000
C        C    0.67680000  0.07289000  0.63270000  0.00000000
C        C    0.32320000  0.92711000  0.63270000  0.00000000
C        C    0.67680000  0.92711000  0.36730000  0.00000000
C        C    0.32320000  0.07289000  0.36730000  0.00000000
N        N    0.64780000  0.07540000  0.62740000  0.00000000
N        N    0.35220000  0.92460000  0.62740000  0.00000000
N        N    0.64780000  0.92460000  0.37260000  0.00000000
N        N    0.35220000  0.07540000  0.37260000  0.00000000
N        N    0.77660000  0.08380000  0.68821000  0.00000000
N        N    0.22340000  0.91620000  0.68821000  0.00000000
N        N    0.77660000  0.91620000  0.31179000  0.00000000
N        N    0.22340000  0.08380000  0.31179000  0.00000000
N        N    0.76521000  0.02491000  0.65410000  0.00000000
N        N    0.23479000  0.97509000  0.65410000  0.00000000
N        N    0.76521000  0.97509000  0.34590000  0.00000000
N        N    0.23479000  0.02491000  0.34590000  0.00000000
N        N    0.75089000  0.08430000  0.61940000  0.00000000
N        N    0.24911000  0.91570000  0.61940000  0.00000000
N        N    0.75089000  0.91570000  0.38060000  0.00000000
N        N    0.24911000  0.08430000  0.38060000  0.00000000
N        N    0.71061000  0.06570000  0.67521000  0.00000000
N        N    0.28939000  0.93430000  0.67521000  0.00000000
N        N    0.71061000  0.93430000  0.32479000  0.00000000
N        N    0.28939000  0.06570000  0.32479000  0.00000000
Zn       Zn   0.75050000  0.06559000  0.65830000  0.00000000
Zn       Zn   0.24950000  0.93441000  0.65830000  0.00000000
Zn       Zn   0.75050000  0.93441000  0.34170000  0.00000000
Zn       Zn   0.24950000  0.06559000  0.34170000  0.00000000
H        H    0.80099000  0.04881000  0.69900000  0.00000000
H        H    0.19901000  0.95119000  0.69900000  0.00000000
H        H    0.80099000  0.95119000  0.30100000  0.00000000
H        H    0.19901000  0.04881000  0.30100000  0.00000000
H        H    0.74621000  0.13530000  0.68051000  0.00000000
H        H    0.25379000  0.86470000  0.68051000  0.00000000
H        H    0.74621000  0.86470000  0.31949000  0.00000000
H        H    0.25379000  0.13530000  0.31949000  0.00000000
H        H    0.73370000  0.00000000  0.67279000  0.00000000
H        H    0.26630000  0.00000000  0.32721000  0.00000000
H        H    0.81111000  0.05180000  0.62599000  0.00000000
H        H    0.18889000  0.94820000  0.62599000  0.00000000
H        H    0.81111000  0.94820000  0.37401000  0.00000000
H        H    0.18889000  0.05180000  0.37401000  0.00000000
H        H    0.75940000  0.12710000  0.62709000  0.00000000
H        H    0.24060000  0.87290000  0.62709000  0.00000000
H        H    0.75940000  0.87290000  0.37291000  0.00000000
H        H    0.24060000  0.12710000  0.37291000  0.00000000
H        H    0.73519000  0.02820000  0.60169000  0.00000000
H        H    0.26481000  0.97180000  0.60169000  0.00000000
H        H    0.73519000  0.97180000  0.39831000  0.00000000
H        H    0.26481000  0.02820000  0.39831000  0.00000000
H        H    0.71850000  0.06161000  0.71849000  0.00000000
H        H    0.28150000  0.93839000  0.71849000  0.00000000
H        H    0.71850000  0.93839000  0.28151000  0.00000000
H        H    0.28150000  0.06161000  0.28151000  0.00000000
H        H    0.69130000  0.07351000  0.61770000  0.00000000
H        H    0.30870000  0.92649000  0.61770000  0.00000000
H        H    0.69130000  0.92649000  0.38230000  0.00000000
H        H    0.30870000  0.07351000  0.38230000  0.00000000
C        C    0.79710000  0.70290000  0.93110000  0.00000000
C        C    0.20290000  0.29710000  0.93110000  0.00000000
C        C    0.79710000  0.29710000  0.06890000  0.00000000
C        C    0.20290000  0.70290000  0.06890000  0.00000000
C        C    0.77711000  0.70120000  0.88921000  0.00000000
C        C    0.22289000  0.29880000  0.88921000  0.00000000
C        C    0.77711000  0.29880000  0.11079000  0.00000000
C        C    0.22289000  0.70120000  0.11079000  0.00000000
C        C    0.76079000  0.69540000  0.86519000  0.00000000
C        C    0.23921000  0.30460000  0.86519000  0.00000000
C        C    0.76079000  0.30460000  0.13481000  0.00000000
C        C    0.23921000  0.69540000  0.13481000  0.00000000
N        N    0.76721000  0.71251000  0.84190000  0.00000000
N        N    0.23279000  0.28749000  0.84190000  0.00000000
N        N    0.76721000  0.28749000  0.15810000  0.00000000
N        N    0.23279000  0.71251000  0.15810000  0.00000000
C        C    0.75160000  0.66210000  0.00000000  0.00000000
C        C    0.24840000  0.33790000  0.00000000  0.00000000
C        C    0.75160000  0.33790000  0.00000000  0.00000000
C        C    0.24840000  0.66210000  0.00000000  0.00000000
C        C    0.78951000  0.63941000  0.98489000  0.00000000
C        C    0.21049000  0.36059000  0.98489000  0.00000000
C        C    0.78951000  0.36059000  0.01511000  0.00000000
C        C    0.21049000  0.63941000  0.01511000  0.00000000
C        C    0.81100000  0.62661000  0.96899000  0.00000000
C        C    0.18900000  0.37339000  0.96899000  0.00000000
C        C    0.81100000  0.37339000  0.03101000  0.00000000
C        C    0.18900000  0.62661000  0.03101000  0.00000000
N        N    0.83250000  0.61480000  0.98599000  0.00000000
N        N    0.16750000  0.38520000  0.98599000  0.00000000
N        N    0.83250000  0.38520000  0.01401000  0.00000000
N        N    0.16750000  0.61480000  0.01401000  0.00000000
C        C    0.75461000  0.61271000  0.88729000  0.00000000
C        C    0.24539000  0.38729000  0.88729000  0.00000000
C        C    0.75461000  0.38729000  0.11271000  0.00000000
C        C    0.24539000  0.61271000  0.11271000  0.00000000
C        C    0.74359000  0.59281000  0.92851000  0.00000000
C        C    0.25641000  0.40719000  0.92851000  0.00000000
C        C    0.74359000  0.40719000  0.07149000  0.00000000
C        C    0.25641000  0.59281000  0.07149000  0.00000000
C        C    0.73581000  0.58700000  0.95701000  0.00000000
C        C    0.26419000  0.41300000  0.95701000  0.00000000
C        C    0.73581000  0.41300000  0.04299000  0.00000000
C        C    0.26419000  0.58700000  0.04299000  0.00000000
N        N    0.72899000  0.55800000  0.96220000  0.00000000
N        N    0.27101000  0.44200000  0.96220000  0.00000000
N        N    0.72899000  0.44200000  0.03780000  0.00000000
N        N    0.27101000  0.55800000  0.03780000  0.00000000
C        C    0.70381000  0.70380000  0.93601000  0.00000000
C        C    0.29619000  0.29620000  0.93601000  0.00000000
C        C    0.70381000  0.29620000  0.06399000  0.00000000
C        C    0.29619000  0.70380000  0.06399000  0.00000000
C        C    0.68329000  0.66199000  0.93051000  0.00000000
C        C    0.31671000  0.33801000  0.93051000  0.00000000
C        C    0.68329000  0.33801000  0.06949000  0.00000000
C        C    0.31671000  0.66199000  0.06949000  0.00000000
C        C    0.67680000  0.63270000  0.92710000  0.00000000
C        C    0.32320000  0.36730000  0.92710000  0.00000000
C        C    0.67680000  0.36730000  0.07290000  0.00000000
C        C    0.32320000  0.63270000  0.07290000  0.00000000
N        N    0.64780000  0.62740000  0.92459000  0.00000000
N        N    0.35220000  0.37260000  0.92459000  0.00000000
N        N    0.64780000  0.37260000  0.07541000  0.00000000
N        N    0.35220000  0.62740000  0.07541000  0.00000000
N        N    0.77660000  0.68821000  0.91619000  0.00000000
N        N    0.22340000  0.31179000  0.91619000  0.00000000
N        N    0.77660000  0.31179000  0.08381000  0.00000000
N        N    0.22340000  0.68821000  0.08381000  0.00000000
N        N    0.76521000  0.65410000  0.97511000  0.00000000
N        N    0.23479000  0.34590000  0.97511000  0.00000000
N        N    0.76521000  0.34590000  0.02489000  0.00000000
N        N    0.23479000  0.65410000  0.02489000  0.00000000
N        N    0.75089000  0.61940000  0.91571000  0.00000000
N        N    0.24911000  0.38060000  0.91571000  0.00000000
N        N    0.75089000  0.38060000  0.08429000  0.00000000
N        N    0.24911000  0.61940000  0.08429000  0.00000000
N        N    0.71061000  0.67521000  0.93429000  0.00000000
N        N    0.28939000  0.32479000  0.93429000  0.00000000
N        N    0.71061000  0.32479000  0.06571000  0.00000000
N        N    0.28939000  0.67521000  0.06571000  0.00000000
Zn       Zn   0.75050000  0.65830000  0.93440000  0.00000000
Zn       Zn   0.24950000  0.34170000  0.93440000  0.00000000
Zn       Zn   0.75050000  0.34170000  0.06560000  0.00000000
Zn       Zn   0.24950000  0.65830000  0.06560000  0.00000000
H        H    0.80099000  0.69900000  0.95120000  0.00000000
H        H    0.19901000  0.30100000  0.95120000  0.00000000
H        H    0.80099000  0.30100000  0.04880000  0.00000000
H        H    0.19901000  0.69900000  0.04880000  0.00000000
H        H    0.74621000  0.68051000  0.86471000  0.00000000
H        H    0.25379000  0.31949000  0.86471000  0.00000000
H        H    0.74621000  0.31949000  0.13529000  0.00000000
H        H    0.25379000  0.68051000  0.13529000  0.00000000
H        H    0.73370000  0.67279000  0.00000000  0.00000000
H        H    0.26630000  0.32721000  0.00000000  0.00000000
H        H    0.73370000  0.32721000  0.00000000  0.00000000
H        H    0.26630000  0.67279000  0.00000000  0.00000000
H        H    0.81111000  0.62599000  0.94821000  0.00000000
H        H    0.18889000  0.37401000  0.94821000  0.00000000
H        H    0.81111000  0.37401000  0.05179000  0.00000000
H        H    0.18889000  0.62599000  0.05179000  0.00000000
H        H    0.75940000  0.62709000  0.87289000  0.00000000
H        H    0.24060000  0.37291000  0.87289000  0.00000000
H        H    0.75940000  0.37291000  0.12711000  0.00000000
H        H    0.24060000  0.62709000  0.12711000  0.00000000
H        H    0.73519000  0.60169000  0.97181000  0.00000000
H        H    0.26481000  0.39831000  0.97181000  0.00000000
H        H    0.73519000  0.39831000  0.02819000  0.00000000
H        H    0.26481000  0.60169000  0.02819000  0.00000000
H        H    0.71850000  0.71849000  0.93840000  0.00000000
H        H    0.28150000  0.28151000  0.93840000  0.00000000
H        H    0.71850000  0.28151000  0.06160000  0.00000000
H        H    0.28150000  0.71849000  0.06160000  0.00000000
H        H    0.69130000  0.61770000  0.92651000  0.00000000
H        H    0.30870000  0.38230000  0.92651000  0.00000000
H        H    0.69130000  0.38230000  0.07349000  0.00000000
H        H    0.30870000  0.61770000  0.07349000  0.00000000
C        C    0.66209000  0.00000000  0.75161000  0.00000000
C        C    0.33791000  0.00000000  0.24839000  0.00000000
H        H    0.67280000  0.00000000  0.73371000  0.00000000
H        H    0.32720000  0.00000000  0.26629000  0.00000000
C        C    0.29710000  0.06891000  0.79711000  0.00000000
C        C    0.70290000  0.93109000  0.79711000  0.00000000
C        C    0.29710000  0.93109000  0.20289000  0.00000000
C        C    0.70290000  0.06891000  0.20289000  0.00000000
C        C    0.29880000  0.11080000  0.77710000  0.00000000
C        C    0.70120000  0.88920000  0.77710000  0.00000000
C        C    0.29880000  0.88920000  0.22290000  0.00000000
C        C    0.70120000  0.11080000  0.22290000  0.00000000
C        C    0.30460000  0.13480000  0.76080000  0.00000000
C        C    0.69540000  0.86520000  0.76080000  0.00000000
C        C    0.30460000  0.86520000  0.23920000  0.00000000
C        C    0.69540000  0.13480000  0.23920000  0.00000000
N        N    0.28749000  0.15811000  0.76720000  0.00000000
N        N    0.71251000  0.84189000  0.76720000  0.00000000
N        N    0.28749000  0.84189000  0.23280000  0.00000000
N        N    0.71251000  0.15811000  0.23280000  0.00000000
C        C    0.33790000  0.00000000  0.75161000  0.00000000
C        C    0.66210000  0.00000000  0.24839000  0.00000000
C        C    0.36059000  0.01510000  0.78950000  0.00000000
C        C    0.63941000  0.98490000  0.78950000  0.00000000
C        C    0.36059000  0.98490000  0.21050000  0.00000000
C        C    0.63941000  0.01510000  0.21050000  0.00000000
C        C    0.37339000  0.03100000  0.81101000  0.00000000
C        C    0.62661000  0.96900000  0.81101000  0.00000000
C        C    0.37339000  0.96900000  0.18899000  0.00000000
C        C    0.62661000  0.03100000  0.18899000  0.00000000
N        N    0.38520000  0.01400000  0.83249000  0.00000000
N        N    0.61480000  0.98600000  0.83249000  0.00000000
N        N    0.38520000  0.98600000  0.16751000  0.00000000
N        N    0.61480000  0.01400000  0.16751000  0.00000000
C        C    0.38729000  0.11269000  0.75460000  0.00000000
C        C    0.61271000  0.88731000  0.75460000  0.00000000
C        C    0.38729000  0.88731000  0.24540000  0.00000000
C        C    0.61271000  0.11269000  0.24540000  0.00000000
C        C    0.40719000  0.07150000  0.74360000  0.00000000
C        C    0.59281000  0.92850000  0.74360000  0.00000000
C        C    0.40719000  0.92850000  0.25640000  0.00000000
C        C    0.59281000  0.07150000  0.25640000  0.00000000
C        C    0.41300000  0.04300000  0.73580000  0.00000000
C        C    0.58700000  0.95700000  0.73580000  0.00000000
C        C    0.41300000  0.95700000  0.26420000  0.00000000
C        C    0.58700000  0.04300000  0.26420000  0.00000000
N        N    0.44200000  0.03779000  0.72900000  0.00000000
N        N    0.55800000  0.96221000  0.72900000  0.00000000
N        N    0.44200000  0.96221000  0.27100000  0.00000000
N        N    0.55800000  0.03779000  0.27100000  0.00000000
C        C    0.29620000  0.06401000  0.70380000  0.00000000
C        C    0.70380000  0.93599000  0.70380000  0.00000000
C        C    0.29620000  0.93599000  0.29620000  0.00000000
C        C    0.70380000  0.06401000  0.29620000  0.00000000
C        C    0.33801000  0.06950000  0.68330000  0.00000000
C        C    0.66199000  0.93050000  0.68330000  0.00000000
C        C    0.33801000  0.93050000  0.31670000  0.00000000
C        C    0.66199000  0.06950000  0.31670000  0.00000000
C        C    0.36730000  0.07289000  0.67679000  0.00000000
C        C    0.63270000  0.92711000  0.67679000  0.00000000
C        C    0.36730000  0.92711000  0.32321000  0.00000000
C        C    0.63270000  0.07289000  0.32321000  0.00000000
N        N    0.37260000  0.07540000  0.64781000  0.00000000
N        N    0.62740000  0.92460000  0.64781000  0.00000000
N        N    0.37260000  0.92460000  0.35219000  0.00000000
N        N    0.62740000  0.07540000  0.35219000  0.00000000
N        N    0.31179000  0.08380000  0.77659000  0.00000000
N        N    0.68821000  0.91620000  0.77659000  0.00000000
N        N    0.31179000  0.91620000  0.22341000  0.00000000
N        N    0.68821000  0.08380000  0.22341000  0.00000000
N        N    0.34590000  0.02491000  0.76520000  0.00000000
N        N    0.65410000  0.97509000  0.76520000  0.00000000
N        N    0.34590000  0.97509000  0.23480000  0.00000000
N        N    0.65410000  0.02491000  0.23480000  0.00000000
N        N    0.38060000  0.08430000  0.75090000  0.00000000
N        N    0.61940000  0.91570000  0.75090000  0.00000000
N        N    0.38060000  0.91570000  0.24910000  0.00000000
N        N    0.61940000  0.08430000  0.24910000  0.00000000
N        N    0.32479000  0.06570000  0.71059000  0.00000000
N        N    0.67521000  0.93430000  0.71059000  0.00000000
N        N    0.32479000  0.93430000  0.28941000  0.00000000
N        N    0.67521000  0.06570000  0.28941000  0.00000000
Zn       Zn   0.34170000  0.06559000  0.75051000  0.00000000
Zn       Zn   0.65830000  0.93441000  0.75051000  0.00000000
Zn       Zn   0.34170000  0.93441000  0.24949000  0.00000000
Zn       Zn   0.65830000  0.06559000  0.24949000  0.00000000
H        H    0.30100000  0.04881000  0.80100000  0.00000000
H        H    0.69900000  0.95119000  0.80100000  0.00000000
H        H    0.30100000  0.95119000  0.19900000  0.00000000
H        H    0.69900000  0.04881000  0.19900000  0.00000000
H        H    0.31949000  0.13530000  0.74620000  0.00000000
H        H    0.68051000  0.86470000  0.74620000  0.00000000
H        H    0.31949000  0.86470000  0.25380000  0.00000000
H        H    0.68051000  0.13530000  0.25380000  0.00000000
H        H    0.32721000  0.00000000  0.73371000  0.00000000
H        H    0.67279000  0.00000000  0.26629000  0.00000000
H        H    0.37401000  0.05180000  0.81109000  0.00000000
H        H    0.62599000  0.94820000  0.81109000  0.00000000
H        H    0.37401000  0.94820000  0.18891000  0.00000000
H        H    0.62599000  0.05180000  0.18891000  0.00000000
H        H    0.37291000  0.12710000  0.75939000  0.00000000
H        H    0.62709000  0.87290000  0.75939000  0.00000000
H        H    0.37291000  0.87290000  0.24061000  0.00000000
H        H    0.62709000  0.12710000  0.24061000  0.00000000
H        H    0.39831000  0.02820000  0.73520000  0.00000000
H        H    0.60169000  0.97180000  0.73520000  0.00000000
H        H    0.39831000  0.97180000  0.26480000  0.00000000
H        H    0.60169000  0.02820000  0.26480000  0.00000000
H        H    0.28151000  0.06161000  0.71849000  0.00000000
H        H    0.71849000  0.93839000  0.71849000  0.00000000
H        H    0.28151000  0.93839000  0.28151000  0.00000000
H        H    0.71849000  0.06161000  0.28151000  0.00000000
H        H    0.38230000  0.07351000  0.69131000  0.00000000
H        H    0.61770000  0.92649000  0.69131000  0.00000000
H        H    0.38230000  0.92649000  0.30869000  0.00000000
H        H    0.61770000  0.07351000  0.30869000  0.00000000
C        C    0.00000000  0.75160000  0.66210000  0.00000000
C        C    0.00000000  0.24840000  0.33790000  0.00000000
H        H    0.00000000  0.73370000  0.67279000  0.00000000
H        H    0.00000000  0.26630000  0.32721000  0.00000000
C        C    0.93109000  0.20290000  0.29709000  0.00000000
C        C    0.06891000  0.79710000  0.29709000  0.00000000
C        C    0.93109000  0.79710000  0.70291000  0.00000000
C        C    0.06891000  0.20290000  0.70291000  0.00000000
C        C    0.88920000  0.22289000  0.29881000  0.00000000
C        C    0.11080000  0.77711000  0.29881000  0.00000000
C        C    0.88920000  0.77711000  0.70119000  0.00000000
C        C    0.11080000  0.22289000  0.70119000  0.00000000
C        C    0.86520000  0.23921000  0.30459000  0.00000000
C        C    0.13480000  0.76079000  0.30459000  0.00000000
C        C    0.86520000  0.76079000  0.69541000  0.00000000
C        C    0.13480000  0.23921000  0.69541000  0.00000000
N        N    0.84189000  0.23279000  0.28750000  0.00000000
N        N    0.15811000  0.76721000  0.28750000  0.00000000
N        N    0.84189000  0.76721000  0.71250000  0.00000000
N        N    0.15811000  0.23279000  0.71250000  0.00000000
C        C    0.00000000  0.75160000  0.33791000  0.00000000
C        C    0.00000000  0.24840000  0.66209000  0.00000000
C        C    0.98490000  0.21049000  0.36060000  0.00000000
C        C    0.01510000  0.78951000  0.36060000  0.00000000
C        C    0.98490000  0.78951000  0.63940000  0.00000000
C        C    0.01510000  0.21049000  0.63940000  0.00000000
C        C    0.96900000  0.18900000  0.37340000  0.00000000
C        C    0.03100000  0.81100000  0.37340000  0.00000000
C        C    0.96900000  0.81100000  0.62660000  0.00000000
C        C    0.03100000  0.18900000  0.62660000  0.00000000
N        N    0.98600000  0.16750000  0.38521000  0.00000000
N        N    0.01400000  0.83250000  0.38521000  0.00000000
N        N    0.98600000  0.83250000  0.61479000  0.00000000
N        N    0.01400000  0.16750000  0.61479000  0.00000000
C        C    0.88731000  0.24539000  0.38730000  0.00000000
C        C    0.11269000  0.75461000  0.38730000  0.00000000
C        C    0.88731000  0.75461000  0.61270000  0.00000000
C        C    0.11269000  0.24539000  0.61270000  0.00000000
C        C    0.92850000  0.25641000  0.40720000  0.00000000
C        C    0.07150000  0.74359000  0.40720000  0.00000000
C        C    0.92850000  0.74359000  0.59280000  0.00000000
C        C    0.07150000  0.25641000  0.59280000  0.00000000
C        C    0.95700000  0.26419000  0.41301000  0.00000000
C        C    0.04300000  0.73581000  0.41301000  0.00000000
C        C    0.95700000  0.73581000  0.58699000  0.00000000
C        C    0.04300000  0.26419000  0.58699000  0.00000000
N        N    0.96221000  0.27101000  0.44199000  0.00000000
N        N    0.03779000  0.72899000  0.44199000  0.00000000
N        N    0.96221000  0.72899000  0.55801000  0.00000000
N        N    0.03779000  0.27101000  0.55801000  0.00000000
C        C    0.93599000  0.29619000  0.29619000  0.00000000
C        C    0.06401000  0.70381000  0.29619000  0.00000000
C        C    0.93599000  0.70381000  0.70381000  0.00000000
C        C    0.06401000  0.29619000  0.70381000  0.00000000
C        C    0.93050000  0.31671000  0.33800000  0.00000000
C        C    0.06950000  0.68329000  0.33800000  0.00000000
C        C    0.93050000  0.68329000  0.66200000  0.00000000
C        C    0.06950000  0.31671000  0.66200000  0.00000000
C        C    0.92711000  0.32320000  0.36731000  0.00000000
C        C    0.07289000  0.67680000  0.36731000  0.00000000
C        C    0.92711000  0.67680000  0.63269000  0.00000000
C        C    0.07289000  0.32320000  0.63269000  0.00000000
N        N    0.92460000  0.35220000  0.37261000  0.00000000
N        N    0.07540000  0.64780000  0.37261000  0.00000000
N        N    0.92460000  0.64780000  0.62739000  0.00000000
N        N    0.07540000  0.35220000  0.62739000  0.00000000
N        N    0.91620000  0.22340000  0.31180000  0.00000000
N        N    0.08380000  0.77660000  0.31180000  0.00000000
N        N    0.91620000  0.77660000  0.68820000  0.00000000
N        N    0.08380000  0.22340000  0.68820000  0.00000000
N        N    0.97509000  0.23479000  0.34589000  0.00000000
N        N    0.02491000  0.76521000  0.34589000  0.00000000
N        N    0.97509000  0.76521000  0.65411000  0.00000000
N        N    0.02491000  0.23479000  0.65411000  0.00000000
N        N    0.91570000  0.24911000  0.38059000  0.00000000
N        N    0.08430000  0.75089000  0.38059000  0.00000000
N        N    0.91570000  0.75089000  0.61941000  0.00000000
N        N    0.08430000  0.24911000  0.61941000  0.00000000
N        N    0.93430000  0.28939000  0.32480000  0.00000000
N        N    0.06570000  0.71061000  0.32480000  0.00000000
N        N    0.93430000  0.71061000  0.67520000  0.00000000
N        N    0.06570000  0.28939000  0.67520000  0.00000000
Zn       Zn   0.93441000  0.24950000  0.34169000  0.00000000
Zn       Zn   0.06559000  0.75050000  0.34169000  0.00000000
Zn       Zn   0.93441000  0.75050000  0.65831000  0.00000000
Zn       Zn   0.06559000  0.24950000  0.65831000  0.00000000
H        H    0.95119000  0.19901000  0.30101000  0.00000000
H        H    0.04881000  0.80099000  0.30101000  0.00000000
H        H    0.95119000  0.80099000  0.69899000  0.00000000
H        H    0.04881000  0.19901000  0.69899000  0.00000000
H        H    0.86470000  0.25379000  0.31950000  0.00000000
H        H    0.13530000  0.74621000  0.31950000  0.00000000
H        H    0.86470000  0.74621000  0.68050000  0.00000000
H        H    0.13530000  0.25379000  0.68050000  0.00000000
H        H    0.00000000  0.73370000  0.32720000  0.00000000
H        H    0.00000000  0.26630000  0.67280000  0.00000000
H        H    0.94820000  0.18889000  0.37400000  0.00000000
H        H    0.05180000  0.81111000  0.37400000  0.00000000
H        H    0.94820000  0.81111000  0.62600000  0.00000000
H        H    0.05180000  0.18889000  0.62600000  0.00000000
H        H    0.87290000  0.24060000  0.37290000  0.00000000
H        H    0.12710000  0.75940000  0.37290000  0.00000000
H        H    0.87290000  0.75940000  0.62710000  0.00000000
H        H    0.12710000  0.24060000  0.62710000  0.00000000
H        H    0.97180000  0.26481000  0.39830000  0.00000000
H        H    0.02820000  0.73519000  0.39830000  0.00000000
H        H    0.97180000  0.73519000  0.60170000  0.00000000
H        H    0.02820000  0.26481000  0.60170000  0.00000000
H        H    0.93839000  0.28150000  0.28150000  0.00000000
H        H    0.06161000  0.71850000  0.28150000  0.00000000
H        H    0.93839000  0.71850000  0.71850000  0.00000000
H        H    0.06161000  0.28150000  0.71850000  0.00000000
H        H    0.92649000  0.30870000  0.38231000  0.00000000
H        H    0.07351000  0.69130000  0.38231000  0.00000000
H        H    0.92649000  0.69130000  0.61769000  0.00000000
H        H    0.07351000  0.30870000  0.61769000  0.00000000
C        C    0.70291000  0.79711000  0.93110000  0.00000000
C        C    0.29709000  0.20289000  0.93110000  0.00000000
C        C    0.70291000  0.20289000  0.06890000  0.00000000
C        C    0.29709000  0.79711000  0.06890000  0.00000000
C        C    0.70119000  0.77710000  0.88921000  0.00000000
C        C    0.29881000  0.22290000  0.88921000  0.00000000
C        C    0.70119000  0.22290000  0.11079000  0.00000000
C        C    0.29881000  0.77710000  0.11079000  0.00000000
C        C    0.69541000  0.76080000  0.86519000  0.00000000
C        C    0.30459000  0.23920000  0.86519000  0.00000000
C        C    0.69541000  0.23920000  0.13481000  0.00000000
C        C    0.30459000  0.76080000  0.13481000  0.00000000
N        N    0.71250000  0.76720000  0.84190000  0.00000000
N        N    0.28750000  0.23280000  0.84190000  0.00000000
N        N    0.71250000  0.23280000  0.15810000  0.00000000
N        N    0.28750000  0.76720000  0.15810000  0.00000000
C        C    0.63940000  0.78950000  0.98489000  0.00000000
C        C    0.36060000  0.21050000  0.98489000  0.00000000
C        C    0.63940000  0.21050000  0.01511000  0.00000000
C        C    0.36060000  0.78950000  0.01511000  0.00000000
N        N    0.62660000  0.81101000  0.96899000  0.00000000
N        N    0.37340000  0.18899000  0.96899000  0.00000000
N        N    0.62660000  0.18899000  0.03101000  0.00000000
N        N    0.37340000  0.81101000  0.03101000  0.00000000
C        C    0.61479000  0.83249000  0.98599000  0.00000000
C        C    0.38521000  0.16751000  0.98599000  0.00000000
C        C    0.61479000  0.16751000  0.01401000  0.00000000
C        C    0.38521000  0.83249000  0.01401000  0.00000000
C        C    0.61270000  0.75460000  0.88729000  0.00000000
C        C    0.38730000  0.24540000  0.88729000  0.00000000
C        C    0.61270000  0.24540000  0.11271000  0.00000000
C        C    0.38730000  0.75460000  0.11271000  0.00000000
C        C    0.59280000  0.74360000  0.92851000  0.00000000
C        C    0.40720000  0.25640000  0.92851000  0.00000000
C        C    0.59280000  0.25640000  0.07149000  0.00000000
C        C    0.40720000  0.74360000  0.07149000  0.00000000
C        C    0.58699000  0.73580000  0.95701000  0.00000000
C        C    0.41301000  0.26420000  0.95701000  0.00000000
C        C    0.58699000  0.26420000  0.04299000  0.00000000
C        C    0.41301000  0.73580000  0.04299000  0.00000000
N        N    0.55801000  0.72900000  0.96220000  0.00000000
N        N    0.44199000  0.27100000  0.96220000  0.00000000
N        N    0.55801000  0.27100000  0.03780000  0.00000000
N        N    0.44199000  0.72900000  0.03780000  0.00000000
C        C    0.66200000  0.68330000  0.93051000  0.00000000
C        C    0.33800000  0.31670000  0.93051000  0.00000000
C        C    0.66200000  0.31670000  0.06949000  0.00000000
C        C    0.33800000  0.68330000  0.06949000  0.00000000
N        N    0.63269000  0.67679000  0.92710000  0.00000000
N        N    0.36731000  0.32321000  0.92710000  0.00000000
N        N    0.63269000  0.32321000  0.07290000  0.00000000
N        N    0.36731000  0.67679000  0.07290000  0.00000000
C        C    0.62739000  0.64781000  0.92459000  0.00000000
C        C    0.37261000  0.35219000  0.92459000  0.00000000
C        C    0.62739000  0.35219000  0.07541000  0.00000000
C        C    0.37261000  0.64781000  0.07541000  0.00000000
N        N    0.68820000  0.77659000  0.91619000  0.00000000
N        N    0.31180000  0.22341000  0.91619000  0.00000000
N        N    0.68820000  0.22341000  0.08381000  0.00000000
N        N    0.31180000  0.77659000  0.08381000  0.00000000
N        N    0.65411000  0.76520000  0.97511000  0.00000000
N        N    0.34589000  0.23480000  0.97511000  0.00000000
N        N    0.65411000  0.23480000  0.02489000  0.00000000
N        N    0.34589000  0.76520000  0.02489000  0.00000000
N        N    0.61941000  0.75090000  0.91571000  0.00000000
N        N    0.38059000  0.24910000  0.91571000  0.00000000
N        N    0.61941000  0.24910000  0.08429000  0.00000000
N        N    0.38059000  0.75090000  0.08429000  0.00000000
N        N    0.67520000  0.71059000  0.93429000  0.00000000
N        N    0.32480000  0.28941000  0.93429000  0.00000000
N        N    0.67520000  0.28941000  0.06571000  0.00000000
N        N    0.32480000  0.71059000  0.06571000  0.00000000
Zn       Zn   0.65831000  0.75051000  0.93440000  0.00000000
Zn       Zn   0.34169000  0.24949000  0.93440000  0.00000000
Zn       Zn   0.65831000  0.24949000  0.06560000  0.00000000
Zn       Zn   0.34169000  0.75051000  0.06560000  0.00000000
H        H    0.69899000  0.80100000  0.95120000  0.00000000
H        H    0.30101000  0.19900000  0.95120000  0.00000000
H        H    0.69899000  0.19900000  0.04880000  0.00000000
H        H    0.30101000  0.80100000  0.04880000  0.00000000
H        H    0.68050000  0.74620000  0.86471000  0.00000000
H        H    0.31950000  0.25380000  0.86471000  0.00000000
H        H    0.68050000  0.25380000  0.13529000  0.00000000
H        H    0.31950000  0.74620000  0.13529000  0.00000000
H        H    0.60579000  0.84870000  0.97629000  0.00000000
H        H    0.39421000  0.15130000  0.97629000  0.00000000
H        H    0.60579000  0.15130000  0.02371000  0.00000000
H        H    0.39421000  0.84870000  0.02371000  0.00000000
H        H    0.62710000  0.75939000  0.87289000  0.00000000
H        H    0.37290000  0.24061000  0.87289000  0.00000000
H        H    0.62710000  0.24061000  0.12711000  0.00000000
H        H    0.37290000  0.75939000  0.12711000  0.00000000
H        H    0.60170000  0.73520000  0.97181000  0.00000000
H        H    0.39830000  0.26480000  0.97181000  0.00000000
H        H    0.60170000  0.26480000  0.02819000  0.00000000
H        H    0.39830000  0.73520000  0.02819000  0.00000000
H        H    0.60751000  0.64161000  0.92270000  0.00000000
H        H    0.39249000  0.35839000  0.92270000  0.00000000
H        H    0.60751000  0.35839000  0.07730000  0.00000000
H        H    0.39249000  0.64161000  0.07730000  0.00000000
C        C    0.06890000  0.29709000  0.79711000  0.00000000
C        C    0.93110000  0.70291000  0.79711000  0.00000000
C        C    0.06890000  0.70291000  0.20289000  0.00000000
C        C    0.93110000  0.29709000  0.20289000  0.00000000
C        C    0.11079000  0.29881000  0.77710000  0.00000000
C        C    0.88921000  0.70119000  0.77710000  0.00000000
C        C    0.11079000  0.70119000  0.22290000  0.00000000
C        C    0.88921000  0.29881000  0.22290000  0.00000000
C        C    0.13481000  0.30459000  0.76080000  0.00000000
C        C    0.86519000  0.69541000  0.76080000  0.00000000
C        C    0.13481000  0.69541000  0.23920000  0.00000000
C        C    0.86519000  0.30459000  0.23920000  0.00000000
N        N    0.15810000  0.28750000  0.76720000  0.00000000
N        N    0.84190000  0.71250000  0.76720000  0.00000000
N        N    0.15810000  0.71250000  0.23280000  0.00000000
N        N    0.84190000  0.28750000  0.23280000  0.00000000
C        C    0.01511000  0.36060000  0.78950000  0.00000000
C        C    0.98489000  0.63940000  0.78950000  0.00000000
C        C    0.01511000  0.63940000  0.21050000  0.00000000
C        C    0.98489000  0.36060000  0.21050000  0.00000000
N        N    0.03101000  0.37340000  0.81101000  0.00000000
N        N    0.96899000  0.62660000  0.81101000  0.00000000
N        N    0.03101000  0.62660000  0.18899000  0.00000000
N        N    0.96899000  0.37340000  0.18899000  0.00000000
C        C    0.01401000  0.38521000  0.83249000  0.00000000
C        C    0.98599000  0.61479000  0.83249000  0.00000000
C        C    0.01401000  0.61479000  0.16751000  0.00000000
C        C    0.98599000  0.38521000  0.16751000  0.00000000
C        C    0.11271000  0.38730000  0.75460000  0.00000000
C        C    0.88729000  0.61270000  0.75460000  0.00000000
C        C    0.11271000  0.61270000  0.24540000  0.00000000
C        C    0.88729000  0.38730000  0.24540000  0.00000000
C        C    0.07149000  0.40720000  0.74360000  0.00000000
C        C    0.92851000  0.59280000  0.74360000  0.00000000
C        C    0.07149000  0.59280000  0.25640000  0.00000000
C        C    0.92851000  0.40720000  0.25640000  0.00000000
C        C    0.04299000  0.41301000  0.73580000  0.00000000
C        C    0.95701000  0.58699000  0.73580000  0.00000000
C        C    0.04299000  0.58699000  0.26420000  0.00000000
C        C    0.95701000  0.41301000  0.26420000  0.00000000
N        N    0.03780000  0.44199000  0.72900000  0.00000000
N        N    0.96220000  0.55801000  0.72900000  0.00000000
N        N    0.03780000  0.55801000  0.27100000  0.00000000
N        N    0.96220000  0.44199000  0.27100000  0.00000000
C        C    0.06949000  0.33800000  0.68330000  0.00000000
C        C    0.93051000  0.66200000  0.68330000  0.00000000
C        C    0.06949000  0.66200000  0.31670000  0.00000000
C        C    0.93051000  0.33800000  0.31670000  0.00000000
N        N    0.07290000  0.36731000  0.67679000  0.00000000
N        N    0.92710000  0.63269000  0.67679000  0.00000000
N        N    0.07290000  0.63269000  0.32321000  0.00000000
N        N    0.92710000  0.36731000  0.32321000  0.00000000
C        C    0.07541000  0.37261000  0.64781000  0.00000000
C        C    0.92459000  0.62739000  0.64781000  0.00000000
C        C    0.07541000  0.62739000  0.35219000  0.00000000
C        C    0.92459000  0.37261000  0.35219000  0.00000000
N        N    0.08381000  0.31180000  0.77659000  0.00000000
N        N    0.91619000  0.68820000  0.77659000  0.00000000
N        N    0.08381000  0.68820000  0.22341000  0.00000000
N        N    0.91619000  0.31180000  0.22341000  0.00000000
N        N    0.02489000  0.34589000  0.76520000  0.00000000
N        N    0.97511000  0.65411000  0.76520000  0.00000000
N        N    0.02489000  0.65411000  0.23480000  0.00000000
N        N    0.97511000  0.34589000  0.23480000  0.00000000
N        N    0.08429000  0.38059000  0.75090000  0.00000000
N        N    0.91571000  0.61941000  0.75090000  0.00000000
N        N    0.08429000  0.61941000  0.24910000  0.00000000
N        N    0.91571000  0.38059000  0.24910000  0.00000000
N        N    0.06571000  0.32480000  0.71059000  0.00000000
N        N    0.93429000  0.67520000  0.71059000  0.00000000
N        N    0.06571000  0.67520000  0.28941000  0.00000000
N        N    0.93429000  0.32480000  0.28941000  0.00000000
Zn       Zn   0.06560000  0.34169000  0.75051000  0.00000000
Zn       Zn   0.93440000  0.65831000  0.75051000  0.00000000
Zn       Zn   0.06560000  0.65831000  0.24949000  0.00000000
Zn       Zn   0.93440000  0.34169000  0.24949000  0.00000000
H        H    0.04880000  0.30101000  0.80100000  0.00000000
H        H    0.95120000  0.69899000  0.80100000  0.00000000
H        H    0.04880000  0.69899000  0.19900000  0.00000000
H        H    0.95120000  0.30101000  0.19900000  0.00000000
H        H    0.13529000  0.31950000  0.74620000  0.00000000
H        H    0.86471000  0.68050000  0.74620000  0.00000000
H        H    0.13529000  0.68050000  0.25380000  0.00000000
H        H    0.86471000  0.31950000  0.25380000  0.00000000
H        H    0.02371000  0.39421000  0.84870000  0.00000000
H        H    0.97629000  0.60579000  0.84870000  0.00000000
H        H    0.02371000  0.60579000  0.15130000  0.00000000
H        H    0.97629000  0.39421000  0.15130000  0.00000000
H        H    0.12711000  0.37290000  0.75939000  0.00000000
H        H    0.87289000  0.62710000  0.75939000  0.00000000
H        H    0.12711000  0.62710000  0.24061000  0.00000000
H        H    0.87289000  0.37290000  0.24061000  0.00000000
H        H    0.02819000  0.39830000  0.73520000  0.00000000
H        H    0.97181000  0.60170000  0.73520000  0.00000000
H        H    0.02819000  0.60170000  0.26480000  0.00000000
H        H    0.97181000  0.39830000  0.26480000  0.00000000
H        H    0.07730000  0.39249000  0.64161000  0.00000000
H        H    0.92270000  0.60751000  0.64161000  0.00000000
H        H    0.07730000  0.60751000  0.35839000  0.00000000
H        H    0.92270000  0.39249000  0.35839000  0.00000000
C        C    0.20289000  0.93110000  0.29709000  0.00000000
C        C    0.79711000  0.06890000  0.29709000  0.00000000
C        C    0.20289000  0.06890000  0.70291000  0.00000000
C        C    0.79711000  0.93110000  0.70291000  0.00000000
C        C    0.22290000  0.88921000  0.29881000  0.00000000
C        C    0.77710000  0.11079000  0.29881000  0.00000000
C        C    0.22290000  0.11079000  0.70119000  0.00000000
C        C    0.77710000  0.88921000  0.70119000  0.00000000
C        C    0.23920000  0.86519000  0.30459000  0.00000000
C        C    0.76080000  0.13481000  0.30459000  0.00000000
C        C    0.23920000  0.13481000  0.69541000  0.00000000
C        C    0.76080000  0.86519000  0.69541000  0.00000000
N        N    0.23280000  0.84190000  0.28750000  0.00000000
N        N    0.76720000  0.15810000  0.28750000  0.00000000
N        N    0.23280000  0.15810000  0.71250000  0.00000000
N        N    0.76720000  0.84190000  0.71250000  0.00000000
C        C    0.21050000  0.98489000  0.36060000  0.00000000
C        C    0.78950000  0.01511000  0.36060000  0.00000000
C        C    0.21050000  0.01511000  0.63940000  0.00000000
C        C    0.78950000  0.98489000  0.63940000  0.00000000
N        N    0.18899000  0.96899000  0.37340000  0.00000000
N        N    0.81101000  0.03101000  0.37340000  0.00000000
N        N    0.18899000  0.03101000  0.62660000  0.00000000
N        N    0.81101000  0.96899000  0.62660000  0.00000000
C        C    0.16751000  0.98599000  0.38521000  0.00000000
C        C    0.83249000  0.01401000  0.38521000  0.00000000
C        C    0.16751000  0.01401000  0.61479000  0.00000000
C        C    0.83249000  0.98599000  0.61479000  0.00000000
C        C    0.24540000  0.88729000  0.38730000  0.00000000
C        C    0.75460000  0.11271000  0.38730000  0.00000000
C        C    0.24540000  0.11271000  0.61270000  0.00000000
C        C    0.75460000  0.88729000  0.61270000  0.00000000
C        C    0.25640000  0.92851000  0.40720000  0.00000000
C        C    0.74360000  0.07149000  0.40720000  0.00000000
C        C    0.25640000  0.07149000  0.59280000  0.00000000
C        C    0.74360000  0.92851000  0.59280000  0.00000000
C        C    0.26420000  0.95701000  0.41301000  0.00000000
C        C    0.73580000  0.04299000  0.41301000  0.00000000
C        C    0.26420000  0.04299000  0.58699000  0.00000000
C        C    0.73580000  0.95701000  0.58699000  0.00000000
N        N    0.27100000  0.96220000  0.44199000  0.00000000
N        N    0.72900000  0.03780000  0.44199000  0.00000000
N        N    0.27100000  0.03780000  0.55801000  0.00000000
N        N    0.72900000  0.96220000  0.55801000  0.00000000
C        C    0.31670000  0.93051000  0.33800000  0.00000000
C        C    0.68330000  0.06949000  0.33800000  0.00000000
C        C    0.31670000  0.06949000  0.66200000  0.00000000
C        C    0.68330000  0.93051000  0.66200000  0.00000000
N        N    0.32321000  0.92710000  0.36731000  0.00000000
N        N    0.67679000  0.07290000  0.36731000  0.00000000
N        N    0.32321000  0.07290000  0.63269000  0.00000000
N        N    0.67679000  0.92710000  0.63269000  0.00000000
C        C    0.35219000  0.92459000  0.37261000  0.00000000
C        C    0.64781000  0.07541000  0.37261000  0.00000000
C        C    0.35219000  0.07541000  0.62739000  0.00000000
C        C    0.64781000  0.92459000  0.62739000  0.00000000
N        N    0.22341000  0.91619000  0.31180000  0.00000000
N        N    0.77659000  0.08381000  0.31180000  0.00000000
N        N    0.22341000  0.08381000  0.68820000  0.00000000
N        N    0.77659000  0.91619000  0.68820000  0.00000000
N        N    0.23480000  0.97511000  0.34589000  0.00000000
N        N    0.76520000  0.02489000  0.34589000  0.00000000
N        N    0.23480000  0.02489000  0.65411000  0.00000000
N        N    0.76520000  0.97511000  0.65411000  0.00000000
N        N    0.24910000  0.91571000  0.38059000  0.00000000
N        N    0.75090000  0.08429000  0.38059000  0.00000000
N        N    0.24910000  0.08429000  0.61941000  0.00000000
N        N    0.75090000  0.91571000  0.61941000  0.00000000
N        N    0.28941000  0.93429000  0.32480000  0.00000000
N        N    0.71059000  0.06571000  0.32480000  0.00000000
N        N    0.28941000  0.06571000  0.67520000  0.00000000
N        N    0.71059000  0.93429000  0.67520000  0.00000000
Zn       Zn   0.24949000  0.93440000  0.34169000  0.00000000
Zn       Zn   0.75051000  0.06560000  0.34169000  0.00000000
Zn       Zn   0.24949000  0.06560000  0.65831000  0.00000000
Zn       Zn   0.75051000  0.93440000  0.65831000  0.00000000
H        H    0.19900000  0.95120000  0.30101000  0.00000000
H        H    0.80100000  0.04880000  0.30101000  0.00000000
H        H    0.19900000  0.04880000  0.69899000  0.00000000
H        H    0.80100000  0.95120000  0.69899000  0.00000000
H        H    0.25380000  0.86471000  0.31950000  0.00000000
H        H    0.74620000  0.13529000  0.31950000  0.00000000
H        H    0.25380000  0.13529000  0.68050000  0.00000000
H        H    0.74620000  0.86471000  0.68050000  0.00000000
H        H    0.15130000  0.97629000  0.39421000  0.00000000
H        H    0.84870000  0.02371000  0.39421000  0.00000000
H        H    0.15130000  0.02371000  0.60579000  0.00000000
H        H    0.84870000  0.97629000  0.60579000  0.00000000
H        H    0.24061000  0.87289000  0.37290000  0.00000000
H        H    0.75939000  0.12711000  0.37290000  0.00000000
H        H    0.24061000  0.12711000  0.62710000  0.00000000
H        H    0.75939000  0.87289000  0.62710000  0.00000000
H        H    0.26480000  0.97181000  0.39830000  0.00000000
H        H    0.73520000  0.02819000  0.39830000  0.00000000
H        H    0.26480000  0.02819000  0.60170000  0.00000000
H        H    0.73520000  0.97181000  0.60170000  0.00000000
H        H    0.35839000  0.92270000  0.39249000  0.00000000
H        H    0.64161000  0.07730000  0.39249000  0.00000000
H        H    0.35839000  0.07730000  0.60751000  0.00000000
H        H    0.64161000  0.92270000  0.60751000  0.00000000
C        C    0.20289000  0.29709000  0.06891000  0.00000000
C        C    0.79711000  0.70291000  0.06891000  0.00000000
C        C    0.20289000  0.70291000  0.93109000  0.00000000
C        C    0.79711000  0.29709000  0.93109000  0.00000000
C        C    0.22290000  0.29881000  0.11080000  0.00000000
C        C    0.77710000  0.70119000  0.11080000  0.00000000
C        C    0.22290000  0.70119000  0.88920000  0.00000000
C        C    0.77710000  0.29881000  0.88920000  0.00000000
C        C    0.23920000  0.30459000  0.13480000  0.00000000
C        C    0.76080000  0.69541000  0.13480000  0.00000000
C        C    0.23920000  0.69541000  0.86520000  0.00000000
C        C    0.76080000  0.30459000  0.86520000  0.00000000
N        N    0.23280000  0.28750000  0.15811000  0.00000000
N        N    0.76720000  0.71250000  0.15811000  0.00000000
N        N    0.23280000  0.71250000  0.84189000  0.00000000
N        N    0.76720000  0.28750000  0.84189000  0.00000000
C        C    0.21050000  0.36060000  0.01510000  0.00000000
C        C    0.78950000  0.63940000  0.01510000  0.00000000
C        C    0.21050000  0.63940000  0.98490000  0.00000000
C        C    0.78950000  0.36060000  0.98490000  0.00000000
N        N    0.18899000  0.37340000  0.03100000  0.00000000
N        N    0.81101000  0.62660000  0.03100000  0.00000000
N        N    0.18899000  0.62660000  0.96900000  0.00000000
N        N    0.81101000  0.37340000  0.96900000  0.00000000
C        C    0.16751000  0.38521000  0.01400000  0.00000000
C        C    0.83249000  0.61479000  0.01400000  0.00000000
C        C    0.16751000  0.61479000  0.98600000  0.00000000
C        C    0.83249000  0.38521000  0.98600000  0.00000000
C        C    0.24540000  0.38730000  0.11269000  0.00000000
C        C    0.75460000  0.61270000  0.11269000  0.00000000
C        C    0.24540000  0.61270000  0.88731000  0.00000000
C        C    0.75460000  0.38730000  0.88731000  0.00000000
C        C    0.25640000  0.40720000  0.07150000  0.00000000
C        C    0.74360000  0.59280000  0.07150000  0.00000000
C        C    0.25640000  0.59280000  0.92850000  0.00000000
C        C    0.74360000  0.40720000  0.92850000  0.00000000
C        C    0.26420000  0.41301000  0.04300000  0.00000000
C        C    0.73580000  0.58699000  0.04300000  0.00000000
C        C    0.26420000  0.58699000  0.95700000  0.00000000
C        C    0.73580000  0.41301000  0.95700000  0.00000000
N        N    0.27100000  0.44199000  0.03779000  0.00000000
N        N    0.72900000  0.55801000  0.03779000  0.00000000
N        N    0.27100000  0.55801000  0.96221000  0.00000000
N        N    0.72900000  0.44199000  0.96221000  0.00000000
C        C    0.31670000  0.33800000  0.06950000  0.00000000
C        C    0.68330000  0.66200000  0.06950000  0.00000000
C        C    0.31670000  0.66200000  0.93050000  0.00000000
C        C    0.68330000  0.33800000  0.93050000  0.00000000
N        N    0.32321000  0.36731000  0.07289000  0.00000000
N        N    0.67679000  0.63269000  0.07289000  0.00000000
N        N    0.32321000  0.63269000  0.92711000  0.00000000
N        N    0.67679000  0.36731000  0.92711000  0.00000000
C        C    0.35219000  0.37261000  0.07540000  0.00000000
C        C    0.64781000  0.62739000  0.07540000  0.00000000
C        C    0.35219000  0.62739000  0.92460000  0.00000000
C        C    0.64781000  0.37261000  0.92460000  0.00000000
N        N    0.22341000  0.31180000  0.08380000  0.00000000
N        N    0.77659000  0.68820000  0.08380000  0.00000000
N        N    0.22341000  0.68820000  0.91620000  0.00000000
N        N    0.77659000  0.31180000  0.91620000  0.00000000
N        N    0.23480000  0.34589000  0.02491000  0.00000000
N        N    0.76520000  0.65411000  0.02491000  0.00000000
N        N    0.23480000  0.65411000  0.97509000  0.00000000
N        N    0.76520000  0.34589000  0.97509000  0.00000000
N        N    0.24910000  0.38059000  0.08430000  0.00000000
N        N    0.75090000  0.61941000  0.08430000  0.00000000
N        N    0.24910000  0.61941000  0.91570000  0.00000000
N        N    0.75090000  0.38059000  0.91570000  0.00000000
N        N    0.28941000  0.32480000  0.06570000  0.00000000
N        N    0.71059000  0.67520000  0.06570000  0.00000000
N        N    0.28941000  0.67520000  0.93430000  0.00000000
N        N    0.71059000  0.32480000  0.93430000  0.00000000
Zn       Zn   0.24949000  0.34169000  0.06559000  0.00000000
Zn       Zn   0.75051000  0.65831000  0.06559000  0.00000000
Zn       Zn   0.24949000  0.65831000  0.93441000  0.00000000
Zn       Zn   0.75051000  0.34169000  0.93441000  0.00000000
H        H    0.19900000  0.30101000  0.04881000  0.00000000
H        H    0.80100000  0.69899000  0.04881000  0.00000000
H        H    0.19900000  0.69899000  0.95119000  0.00000000
H        H    0.80100000  0.30101000  0.95119000  0.00000000
H        H    0.25380000  0.31950000  0.13530000  0.00000000
H        H    0.74620000  0.68050000  0.13530000  0.00000000
H        H    0.25380000  0.68050000  0.86470000  0.00000000
H        H    0.74620000  0.31950000  0.86470000  0.00000000
H        H    0.15130000  0.39421000  0.02370000  0.00000000
H        H    0.84870000  0.60579000  0.02370000  0.00000000
H        H    0.15130000  0.60579000  0.97630000  0.00000000
H        H    0.84870000  0.39421000  0.97630000  0.00000000
H        H    0.24061000  0.37290000  0.12710000  0.00000000
H        H    0.75939000  0.62710000  0.12710000  0.00000000
H        H    0.24061000  0.62710000  0.87290000  0.00000000
H        H    0.75939000  0.37290000  0.87290000  0.00000000
H        H    0.26480000  0.39830000  0.02820000  0.00000000
H        H    0.73520000  0.60170000  0.02820000  0.00000000
H        H    0.26480000  0.60170000  0.97180000  0.00000000
H        H    0.73520000  0.39830000  0.97180000  0.00000000
H        H    0.35839000  0.39249000  0.07731000  0.00000000
H        H    0.64161000  0.60751000  0.07731000  0.00000000
H        H    0.35839000  0.60751000  0.92269000  0.00000000
H        H    0.64161000  0.39249000  0.92269000  0.00000000
C        C    0.70291000  0.93110000  0.20290000  0.00000000
C        C    0.29709000  0.06890000  0.20290000  0.00000000
C        C    0.70291000  0.06890000  0.79710000  0.00000000
C        C    0.29709000  0.93110000  0.79710000  0.00000000
C        C    0.70119000  0.88921000  0.22289000  0.00000000
C        C    0.29881000  0.11079000  0.22289000  0.00000000
C        C    0.70119000  0.11079000  0.77711000  0.00000000
C        C    0.29881000  0.88921000  0.77711000  0.00000000
C        C    0.69541000  0.86519000  0.23921000  0.00000000
C        C    0.30459000  0.13481000  0.23921000  0.00000000
C        C    0.69541000  0.13481000  0.76079000  0.00000000
C        C    0.30459000  0.86519000  0.76079000  0.00000000
N        N    0.71250000  0.84190000  0.23279000  0.00000000
N        N    0.28750000  0.15810000  0.23279000  0.00000000
N        N    0.71250000  0.15810000  0.76721000  0.00000000
N        N    0.28750000  0.84190000  0.76721000  0.00000000
C        C    0.63940000  0.98489000  0.21049000  0.00000000
C        C    0.36060000  0.01511000  0.21049000  0.00000000
C        C    0.63940000  0.01511000  0.78951000  0.00000000
C        C    0.36060000  0.98489000  0.78951000  0.00000000
N        N    0.62660000  0.96899000  0.18900000  0.00000000
N        N    0.37340000  0.03101000  0.18900000  0.00000000
N        N    0.62660000  0.03101000  0.81100000  0.00000000
N        N    0.37340000  0.96899000  0.81100000  0.00000000
C        C    0.61479000  0.98599000  0.16750000  0.00000000
C        C    0.38521000  0.01401000  0.16750000  0.00000000
C        C    0.61479000  0.01401000  0.83250000  0.00000000
C        C    0.38521000  0.98599000  0.83250000  0.00000000
C        C    0.61270000  0.88729000  0.24539000  0.00000000
C        C    0.38730000  0.11271000  0.24539000  0.00000000
C        C    0.61270000  0.11271000  0.75461000  0.00000000
C        C    0.38730000  0.88729000  0.75461000  0.00000000
C        C    0.59280000  0.92851000  0.25641000  0.00000000
C        C    0.40720000  0.07149000  0.25641000  0.00000000
C        C    0.59280000  0.07149000  0.74359000  0.00000000
C        C    0.40720000  0.92851000  0.74359000  0.00000000
C        C    0.58699000  0.95701000  0.26419000  0.00000000
C        C    0.41301000  0.04299000  0.26419000  0.00000000
C        C    0.58699000  0.04299000  0.73581000  0.00000000
C        C    0.41301000  0.95701000  0.73581000  0.00000000
N        N    0.55801000  0.96220000  0.27101000  0.00000000
N        N    0.44199000  0.03780000  0.27101000  0.00000000
N        N    0.55801000  0.03780000  0.72899000  0.00000000
N        N    0.44199000  0.96220000  0.72899000  0.00000000
C        C    0.66200000  0.93051000  0.31671000  0.00000000
C        C    0.33800000  0.06949000  0.31671000  0.00000000
C        C    0.66200000  0.06949000  0.68329000  0.00000000
C        C    0.33800000  0.93051000  0.68329000  0.00000000
N        N    0.63269000  0.92710000  0.32320000  0.00000000
N        N    0.36731000  0.07290000  0.32320000  0.00000000
N        N    0.63269000  0.07290000  0.67680000  0.00000000
N        N    0.36731000  0.92710000  0.67680000  0.00000000
C        C    0.62739000  0.92459000  0.35220000  0.00000000
C        C    0.37261000  0.07541000  0.35220000  0.00000000
C        C    0.62739000  0.07541000  0.64780000  0.00000000
C        C    0.37261000  0.92459000  0.64780000  0.00000000
N        N    0.68820000  0.91619000  0.22340000  0.00000000
N        N    0.31180000  0.08381000  0.22340000  0.00000000
N        N    0.68820000  0.08381000  0.77660000  0.00000000
N        N    0.31180000  0.91619000  0.77660000  0.00000000
N        N    0.65411000  0.97511000  0.23479000  0.00000000
N        N    0.34589000  0.02489000  0.23479000  0.00000000
N        N    0.65411000  0.02489000  0.76521000  0.00000000
N        N    0.34589000  0.97511000  0.76521000  0.00000000
N        N    0.61941000  0.91571000  0.24911000  0.00000000
N        N    0.38059000  0.08429000  0.24911000  0.00000000
N        N    0.61941000  0.08429000  0.75089000  0.00000000
N        N    0.38059000  0.91571000  0.75089000  0.00000000
N        N    0.67520000  0.93429000  0.28939000  0.00000000
N        N    0.32480000  0.06571000  0.28939000  0.00000000
N        N    0.67520000  0.06571000  0.71061000  0.00000000
N        N    0.32480000  0.93429000  0.71061000  0.00000000
Zn       Zn   0.65831000  0.93440000  0.24950000  0.00000000
Zn       Zn   0.34169000  0.06560000  0.24950000  0.00000000
Zn       Zn   0.65831000  0.06560000  0.75050000  0.00000000
Zn       Zn   0.34169000  0.93440000  0.75050000  0.00000000
H        H    0.69899000  0.95120000  0.19901000  0.00000000
H        H    0.30101000  0.04880000  0.19901000  0.00000000
H        H    0.69899000  0.04880000  0.80099000  0.00000000
H        H    0.30101000  0.95120000  0.80099000  0.00000000
H        H    0.68050000  0.86471000  0.25379000  0.00000000
H        H    0.31950000  0.13529000  0.25379000  0.00000000
H        H    0.68050000  0.13529000  0.74621000  0.00000000
H        H    0.31950000  0.86471000  0.74621000  0.00000000
H        H    0.60579000  0.97629000  0.15129000  0.00000000
H        H    0.39421000  0.02371000  0.15129000  0.00000000
H        H    0.60579000  0.02371000  0.84871000  0.00000000
H        H    0.39421000  0.97629000  0.84871000  0.00000000
H        H    0.62710000  0.87289000  0.24060000  0.00000000
H        H    0.37290000  0.12711000  0.24060000  0.00000000
H        H    0.62710000  0.12711000  0.75940000  0.00000000
H        H    0.37290000  0.87289000  0.75940000  0.00000000
H        H    0.60170000  0.97181000  0.26481000  0.00000000
H        H    0.39830000  0.02819000  0.26481000  0.00000000
H        H    0.60170000  0.02819000  0.73519000  0.00000000
H        H    0.39830000  0.97181000  0.73519000  0.00000000
H        H    0.60751000  0.92270000  0.35840000  0.00000000
H        H    0.39249000  0.07730000  0.35840000  0.00000000
H        H    0.60751000  0.07730000  0.64160000  0.00000000
H        H    0.39249000  0.92270000  0.64160000  0.00000000
C        C    0.06890000  0.79711000  0.70290000  0.00000000
C        C    0.93110000  0.20289000  0.70290000  0.00000000
C        C    0.06890000  0.20289000  0.29710000  0.00000000
C        C    0.93110000  0.79711000  0.29710000  0.00000000
C        C    0.11079000  0.77710000  0.70120000  0.00000000
C        C    0.88921000  0.22290000  0.70120000  0.00000000
C        C    0.11079000  0.22290000  0.29880000  0.00000000
C        C    0.88921000  0.77710000  0.29880000  0.00000000
C        C    0.13481000  0.76080000  0.69540000  0.00000000
C        C    0.86519000  0.23920000  0.69540000  0.00000000
C        C    0.13481000  0.23920000  0.30460000  0.00000000
C        C    0.86519000  0.76080000  0.30460000  0.00000000
N        N    0.15810000  0.76720000  0.71251000  0.00000000
N        N    0.84190000  0.23280000  0.71251000  0.00000000
N        N    0.15810000  0.23280000  0.28749000  0.00000000
N        N    0.84190000  0.76720000  0.28749000  0.00000000
C        C    0.01511000  0.78950000  0.63941000  0.00000000
C        C    0.98489000  0.21050000  0.63941000  0.00000000
C        C    0.01511000  0.21050000  0.36059000  0.00000000
C        C    0.98489000  0.78950000  0.36059000  0.00000000
N        N    0.03101000  0.81101000  0.62661000  0.00000000
N        N    0.96899000  0.18899000  0.62661000  0.00000000
N        N    0.03101000  0.18899000  0.37339000  0.00000000
N        N    0.96899000  0.81101000  0.37339000  0.00000000
C        C    0.01401000  0.83249000  0.61480000  0.00000000
C        C    0.98599000  0.16751000  0.61480000  0.00000000
C        C    0.01401000  0.16751000  0.38520000  0.00000000
C        C    0.98599000  0.83249000  0.38520000  0.00000000
C        C    0.11271000  0.75460000  0.61271000  0.00000000
C        C    0.88729000  0.24540000  0.61271000  0.00000000
C        C    0.11271000  0.24540000  0.38729000  0.00000000
C        C    0.88729000  0.75460000  0.38729000  0.00000000
C        C    0.07149000  0.74360000  0.59281000  0.00000000
C        C    0.92851000  0.25640000  0.59281000  0.00000000
C        C    0.07149000  0.25640000  0.40719000  0.00000000
C        C    0.92851000  0.74360000  0.40719000  0.00000000
C        C    0.04299000  0.73580000  0.58700000  0.00000000
C        C    0.95701000  0.26420000  0.58700000  0.00000000
C        C    0.04299000  0.26420000  0.41300000  0.00000000
C        C    0.95701000  0.73580000  0.41300000  0.00000000
N        N    0.03780000  0.72900000  0.55800000  0.00000000
N        N    0.96220000  0.27100000  0.55800000  0.00000000
N        N    0.03780000  0.27100000  0.44200000  0.00000000
N        N    0.96220000  0.72900000  0.44200000  0.00000000
C        C    0.06949000  0.68330000  0.66199000  0.00000000
C        C    0.93051000  0.31670000  0.66199000  0.00000000
C        C    0.06949000  0.31670000  0.33801000  0.00000000
C        C    0.93051000  0.68330000  0.33801000  0.00000000
N        N    0.07290000  0.67679000  0.63270000  0.00000000
N        N    0.92710000  0.32321000  0.63270000  0.00000000
N        N    0.07290000  0.32321000  0.36730000  0.00000000
N        N    0.92710000  0.67679000  0.36730000  0.00000000
C        C    0.07541000  0.64781000  0.62740000  0.00000000
C        C    0.92459000  0.35219000  0.62740000  0.00000000
C        C    0.07541000  0.35219000  0.37260000  0.00000000
C        C    0.92459000  0.64781000  0.37260000  0.00000000
N        N    0.08381000  0.77659000  0.68821000  0.00000000
N        N    0.91619000  0.22341000  0.68821000  0.00000000
N        N    0.08381000  0.22341000  0.31179000  0.00000000
N        N    0.91619000  0.77659000  0.31179000  0.00000000
N        N    0.02489000  0.76520000  0.65410000  0.00000000
N        N    0.97511000  0.23480000  0.65410000  0.00000000
N        N    0.02489000  0.23480000  0.34590000  0.00000000
N        N    0.97511000  0.76520000  0.34590000  0.00000000
N        N    0.08429000  0.75090000  0.61940000  0.00000000
N        N    0.91571000  0.24910000  0.61940000  0.00000000
N        N    0.08429000  0.24910000  0.38060000  0.00000000
N        N    0.91571000  0.75090000  0.38060000  0.00000000
N        N    0.06571000  0.71059000  0.67521000  0.00000000
N        N    0.93429000  0.28941000  0.67521000  0.00000000
N        N    0.06571000  0.28941000  0.32479000  0.00000000
N        N    0.93429000  0.71059000  0.32479000  0.00000000
Zn       Zn   0.06560000  0.75051000  0.65830000  0.00000000
Zn       Zn   0.93440000  0.24949000  0.65830000  0.00000000
Zn       Zn   0.06560000  0.24949000  0.34170000  0.00000000
Zn       Zn   0.93440000  0.75051000  0.34170000  0.00000000
H        H    0.04880000  0.80100000  0.69900000  0.00000000
H        H    0.95120000  0.19900000  0.69900000  0.00000000
H        H    0.04880000  0.19900000  0.30100000  0.00000000
H        H    0.95120000  0.80100000  0.30100000  0.00000000
H        H    0.13529000  0.74620000  0.68051000  0.00000000
H        H    0.86471000  0.25380000  0.68051000  0.00000000
H        H    0.13529000  0.25380000  0.31949000  0.00000000
H        H    0.86471000  0.74620000  0.31949000  0.00000000
H        H    0.02371000  0.84870000  0.60581000  0.00000000
H        H    0.97629000  0.15130000  0.60581000  0.00000000
H        H    0.02371000  0.15130000  0.39419000  0.00000000
H        H    0.97629000  0.84870000  0.39419000  0.00000000
H        H    0.12711000  0.75939000  0.62709000  0.00000000
H        H    0.87289000  0.24061000  0.62709000  0.00000000
H        H    0.12711000  0.24061000  0.37291000  0.00000000
H        H    0.87289000  0.75939000  0.37291000  0.00000000
H        H    0.02819000  0.73520000  0.60169000  0.00000000
H        H    0.97181000  0.26480000  0.60169000  0.00000000
H        H    0.02819000  0.26480000  0.39831000  0.00000000
H        H    0.97181000  0.73520000  0.39831000  0.00000000
H        H    0.07730000  0.64161000  0.60750000  0.00000000
H        H    0.92270000  0.35839000  0.60750000  0.00000000
H        H    0.07730000  0.35839000  0.39250000  0.00000000
H        H    0.92270000  0.64161000  0.39250000  0.00000000
C        C    0.29710000  0.70290000  0.56890000  0.00000000
C        C    0.70290000  0.29710000  0.56890000  0.00000000
C        C    0.29710000  0.29710000  0.43110000  0.00000000
C        C    0.70290000  0.70290000  0.43110000  0.00000000
C        C    0.29880000  0.72291000  0.61080000  0.00000000
C        C    0.70120000  0.27709000  0.61080000  0.00000000
C        C    0.29880000  0.27709000  0.38920000  0.00000000
C        C    0.70120000  0.72291000  0.38920000  0.00000000
C        C    0.30460000  0.73921000  0.63479000  0.00000000
C        C    0.69540000  0.26079000  0.63479000  0.00000000
C        C    0.30460000  0.26079000  0.36521000  0.00000000
C        C    0.69540000  0.73921000  0.36521000  0.00000000
N        N    0.28749000  0.73281000  0.65810000  0.00000000
N        N    0.71251000  0.26719000  0.65810000  0.00000000
N        N    0.28749000  0.26719000  0.34190000  0.00000000
N        N    0.71251000  0.73281000  0.34190000  0.00000000
C        C    0.33790000  0.74840000  0.50001000  0.00000000
C        C    0.66210000  0.25160000  0.50001000  0.00000000
C        C    0.33790000  0.25160000  0.49999000  0.00000000
C        C    0.66210000  0.74840000  0.49999000  0.00000000
C        C    0.36059000  0.71051000  0.51509000  0.00000000
C        C    0.63941000  0.28949000  0.51509000  0.00000000
C        C    0.36059000  0.28949000  0.48491000  0.00000000
C        C    0.63941000  0.71051000  0.48491000  0.00000000
C        C    0.37339000  0.68900000  0.53099000  0.00000000
C        C    0.62661000  0.31100000  0.53099000  0.00000000
C        C    0.37339000  0.31100000  0.46901000  0.00000000
C        C    0.62661000  0.68900000  0.46901000  0.00000000
N        N    0.38520000  0.66749000  0.51399000  0.00000000
N        N    0.61480000  0.33251000  0.51399000  0.00000000
N        N    0.38520000  0.33251000  0.48601000  0.00000000
N        N    0.61480000  0.66749000  0.48601000  0.00000000
C        C    0.38729000  0.74541000  0.61271000  0.00000000
C        C    0.61271000  0.25459000  0.61271000  0.00000000
C        C    0.38729000  0.25459000  0.38729000  0.00000000
C        C    0.61271000  0.74541000  0.38729000  0.00000000
C        C    0.40719000  0.75640000  0.57150000  0.00000000
C        C    0.59281000  0.24360000  0.57150000  0.00000000
C        C    0.40719000  0.24360000  0.42850000  0.00000000
C        C    0.59281000  0.75640000  0.42850000  0.00000000
C        C    0.41300000  0.76421000  0.54300000  0.00000000
C        C    0.58700000  0.23579000  0.54300000  0.00000000
C        C    0.41300000  0.23579000  0.45700000  0.00000000
C        C    0.58700000  0.76421000  0.45700000  0.00000000
N        N    0.44200000  0.77100000  0.53781000  0.00000000
N        N    0.55800000  0.22900000  0.53781000  0.00000000
N        N    0.44200000  0.22900000  0.46219000  0.00000000
N        N    0.55800000  0.77100000  0.46219000  0.00000000
C        C    0.29620000  0.79621000  0.56400000  0.00000000
C        C    0.70380000  0.20379000  0.56400000  0.00000000
C        C    0.29620000  0.20379000  0.43600000  0.00000000
C        C    0.70380000  0.79621000  0.43600000  0.00000000
C        C    0.33801000  0.81670000  0.56950000  0.00000000
C        C    0.66199000  0.18330000  0.56950000  0.00000000
C        C    0.33801000  0.18330000  0.43050000  0.00000000
C        C    0.66199000  0.81670000  0.43050000  0.00000000
C        C    0.36730000  0.82319000  0.57291000  0.00000000
C        C    0.63270000  0.17681000  0.57291000  0.00000000
C        C    0.36730000  0.17681000  0.42709000  0.00000000
C        C    0.63270000  0.82319000  0.42709000  0.00000000
N        N    0.37260000  0.85220000  0.57539000  0.00000000
N        N    0.62740000  0.14780000  0.57539000  0.00000000
N        N    0.37260000  0.14780000  0.42461000  0.00000000
N        N    0.62740000  0.85220000  0.42461000  0.00000000
N        N    0.31179000  0.72339000  0.58379000  0.00000000
N        N    0.68821000  0.27661000  0.58379000  0.00000000
N        N    0.31179000  0.27661000  0.41621000  0.00000000
N        N    0.68821000  0.72339000  0.41621000  0.00000000
N        N    0.34590000  0.73481000  0.52490000  0.00000000
N        N    0.65410000  0.26519000  0.52490000  0.00000000
N        N    0.34590000  0.26519000  0.47510000  0.00000000
N        N    0.65410000  0.73481000  0.47510000  0.00000000
N        N    0.38060000  0.74910000  0.58430000  0.00000000
N        N    0.61940000  0.25090000  0.58430000  0.00000000
N        N    0.38060000  0.25090000  0.41570000  0.00000000
N        N    0.61940000  0.74910000  0.41570000  0.00000000
N        N    0.32479000  0.78939000  0.56569000  0.00000000
N        N    0.67521000  0.21061000  0.56569000  0.00000000
N        N    0.32479000  0.21061000  0.43431000  0.00000000
N        N    0.67521000  0.78939000  0.43431000  0.00000000
Zn       Zn   0.34170000  0.74950000  0.56561000  0.00000000
Zn       Zn   0.65830000  0.25050000  0.56561000  0.00000000
Zn       Zn   0.34170000  0.25050000  0.43439000  0.00000000
Zn       Zn   0.65830000  0.74950000  0.43439000  0.00000000
H        H    0.30100000  0.69900000  0.54880000  0.00000000
H        H    0.69900000  0.30100000  0.54880000  0.00000000
H        H    0.30100000  0.30100000  0.45120000  0.00000000
H        H    0.69900000  0.69900000  0.45120000  0.00000000
H        H    0.31949000  0.75381000  0.63530000  0.00000000
H        H    0.68051000  0.24619000  0.63530000  0.00000000
H        H    0.31949000  0.24619000  0.36470000  0.00000000
H        H    0.68051000  0.75381000  0.36470000  0.00000000
H        H    0.32721000  0.76630000  0.50001000  0.00000000
H        H    0.67279000  0.23370000  0.50001000  0.00000000
H        H    0.32721000  0.23370000  0.49999000  0.00000000
H        H    0.67279000  0.76630000  0.49999000  0.00000000
H        H    0.37401000  0.68891000  0.55180000  0.00000000
H        H    0.62599000  0.31109000  0.55180000  0.00000000
H        H    0.37401000  0.31109000  0.44820000  0.00000000
H        H    0.62599000  0.68891000  0.44820000  0.00000000
H        H    0.37291000  0.74059000  0.62709000  0.00000000
H        H    0.62709000  0.25941000  0.62709000  0.00000000
H        H    0.37291000  0.25941000  0.37291000  0.00000000
H        H    0.62709000  0.74059000  0.37291000  0.00000000
H        H    0.39831000  0.76480000  0.52820000  0.00000000
H        H    0.60169000  0.23520000  0.52820000  0.00000000
H        H    0.39831000  0.23520000  0.47180000  0.00000000
H        H    0.60169000  0.76480000  0.47180000  0.00000000
H        H    0.28151000  0.78149000  0.56160000  0.00000000
H        H    0.71849000  0.21851000  0.56160000  0.00000000
H        H    0.28151000  0.21851000  0.43840000  0.00000000
H        H    0.71849000  0.78149000  0.43840000  0.00000000
H        H    0.38230000  0.80870000  0.57350000  0.00000000
H        H    0.61770000  0.19130000  0.57350000  0.00000000
H        H    0.38230000  0.19130000  0.42650000  0.00000000
H        H    0.61770000  0.80870000  0.42650000  0.00000000
C        C    0.00000000  0.16210000  0.74840000  0.00000000
C        C    0.00000000  0.83790000  0.25160000  0.00000000
H        H    0.00000000  0.17281000  0.76630000  0.00000000
H        H    0.00000000  0.82719000  0.23370000  0.00000000
C        C    0.88920000  0.20121000  0.72291000  0.00000000
C        C    0.11080000  0.79879000  0.72291000  0.00000000
C        C    0.88920000  0.79879000  0.27709000  0.00000000
C        C    0.11080000  0.20121000  0.27709000  0.00000000
N        N    0.86520000  0.19540000  0.73921000  0.00000000
N        N    0.13480000  0.80460000  0.73921000  0.00000000
N        N    0.86520000  0.80460000  0.26079000  0.00000000
N        N    0.13480000  0.19540000  0.26079000  0.00000000
C        C    0.84189000  0.21249000  0.73281000  0.00000000
C        C    0.15811000  0.78751000  0.73281000  0.00000000
C        C    0.84189000  0.78751000  0.26719000  0.00000000
C        C    0.15811000  0.21249000  0.26719000  0.00000000
C        C    0.00000000  0.83789000  0.74840000  0.00000000
C        C    0.00000000  0.16211000  0.25160000  0.00000000
C        C    0.98490000  0.13939000  0.71051000  0.00000000
C        C    0.01510000  0.86061000  0.71051000  0.00000000
C        C    0.98490000  0.86061000  0.28949000  0.00000000
C        C    0.01510000  0.13939000  0.28949000  0.00000000
C        C    0.96900000  0.12659000  0.68900000  0.00000000
C        C    0.03100000  0.87341000  0.68900000  0.00000000
C        C    0.96900000  0.87341000  0.31100000  0.00000000
C        C    0.03100000  0.12659000  0.31100000  0.00000000
N        N    0.98600000  0.11481000  0.66749000  0.00000000
N        N    0.01400000  0.88519000  0.66749000  0.00000000
N        N    0.98600000  0.88519000  0.33251000  0.00000000
N        N    0.01400000  0.11481000  0.33251000  0.00000000
C        C    0.88731000  0.11269000  0.74541000  0.00000000
C        C    0.11269000  0.88731000  0.74541000  0.00000000
C        C    0.88731000  0.88731000  0.25459000  0.00000000
C        C    0.11269000  0.11269000  0.25459000  0.00000000
C        C    0.92850000  0.09279000  0.75640000  0.00000000
C        C    0.07150000  0.90721000  0.75640000  0.00000000
C        C    0.92850000  0.90721000  0.24360000  0.00000000
C        C    0.07150000  0.09279000  0.24360000  0.00000000
C        C    0.95700000  0.08701000  0.76421000  0.00000000
C        C    0.04300000  0.91299000  0.76421000  0.00000000
C        C    0.95700000  0.91299000  0.23579000  0.00000000
C        C    0.04300000  0.08701000  0.23579000  0.00000000
N        N    0.96221000  0.05800000  0.77100000  0.00000000
N        N    0.03779000  0.94200000  0.77100000  0.00000000
N        N    0.96221000  0.94200000  0.22900000  0.00000000
N        N    0.03779000  0.05800000  0.22900000  0.00000000
C        C    0.93599000  0.20380000  0.79621000  0.00000000
C        C    0.06401000  0.79620000  0.79621000  0.00000000
C        C    0.93599000  0.79620000  0.20379000  0.00000000
C        C    0.06401000  0.20380000  0.20379000  0.00000000
C        C    0.93050000  0.16200000  0.81670000  0.00000000
C        C    0.06950000  0.83800000  0.81670000  0.00000000
C        C    0.93050000  0.83800000  0.18330000  0.00000000
C        C    0.06950000  0.16200000  0.18330000  0.00000000
C        C    0.92711000  0.13271000  0.82319000  0.00000000
C        C    0.07289000  0.86729000  0.82319000  0.00000000
C        C    0.92711000  0.86729000  0.17681000  0.00000000
C        C    0.07289000  0.13271000  0.17681000  0.00000000
N        N    0.92460000  0.12741000  0.85220000  0.00000000
N        N    0.07540000  0.87259000  0.85220000  0.00000000
N        N    0.92460000  0.87259000  0.14780000  0.00000000
N        N    0.07540000  0.12741000  0.14780000  0.00000000
N        N    0.91620000  0.18819000  0.72339000  0.00000000
N        N    0.08380000  0.81181000  0.72339000  0.00000000
N        N    0.91620000  0.81181000  0.27661000  0.00000000
N        N    0.08380000  0.18819000  0.27661000  0.00000000
N        N    0.97509000  0.15410000  0.73481000  0.00000000
N        N    0.02491000  0.84590000  0.73481000  0.00000000
N        N    0.97509000  0.84590000  0.26519000  0.00000000
N        N    0.02491000  0.15410000  0.26519000  0.00000000
N        N    0.91570000  0.11940000  0.74910000  0.00000000
N        N    0.08430000  0.88060000  0.74910000  0.00000000
N        N    0.91570000  0.88060000  0.25090000  0.00000000
N        N    0.08430000  0.11940000  0.25090000  0.00000000
N        N    0.93430000  0.17519000  0.78939000  0.00000000
N        N    0.06570000  0.82481000  0.78939000  0.00000000
N        N    0.93430000  0.82481000  0.21061000  0.00000000
N        N    0.06570000  0.17519000  0.21061000  0.00000000
Zn       Zn   0.93441000  0.15830000  0.74950000  0.00000000
Zn       Zn   0.06559000  0.84170000  0.74950000  0.00000000
Zn       Zn   0.93441000  0.84170000  0.25050000  0.00000000
Zn       Zn   0.06559000  0.15830000  0.25050000  0.00000000
H        H    0.82441000  0.20970000  0.74369000  0.00000000
H        H    0.17559000  0.79030000  0.74369000  0.00000000
H        H    0.82441000  0.79030000  0.25631000  0.00000000
H        H    0.17559000  0.20970000  0.25631000  0.00000000
H        H    0.00000000  0.82720000  0.76630000  0.00000000
H        H    0.00000000  0.17280000  0.23370000  0.00000000
H        H    0.94820000  0.12600000  0.68891000  0.00000000
H        H    0.05180000  0.87400000  0.68891000  0.00000000
H        H    0.94820000  0.87400000  0.31109000  0.00000000
H        H    0.05180000  0.12600000  0.31109000  0.00000000
H        H    0.87290000  0.12710000  0.74059000  0.00000000
H        H    0.12710000  0.87290000  0.74059000  0.00000000
H        H    0.87290000  0.87290000  0.25941000  0.00000000
H        H    0.12710000  0.12710000  0.25941000  0.00000000
H        H    0.97180000  0.10170000  0.76480000  0.00000000
H        H    0.02820000  0.89830000  0.76480000  0.00000000
H        H    0.97180000  0.89830000  0.23520000  0.00000000
H        H    0.02820000  0.10170000  0.23520000  0.00000000
H        H    0.93839000  0.21849000  0.78149000  0.00000000
H        H    0.06161000  0.78151000  0.78149000  0.00000000
H        H    0.93839000  0.78151000  0.21851000  0.00000000
H        H    0.06161000  0.21849000  0.21851000  0.00000000
H        H    0.92649000  0.11771000  0.80870000  0.00000000
H        H    0.07351000  0.88229000  0.80870000  0.00000000
H        H    0.92649000  0.88229000  0.19130000  0.00000000
H        H    0.07351000  0.11771000  0.19130000  0.00000000
C        C    0.79710000  0.56890000  0.20290000  0.00000000
C        C    0.20290000  0.43110000  0.20290000  0.00000000
C        C    0.79710000  0.43110000  0.79710000  0.00000000
C        C    0.20290000  0.56890000  0.79710000  0.00000000
C        C    0.77711000  0.61080000  0.20121000  0.00000000
C        C    0.22289000  0.38920000  0.20121000  0.00000000
C        C    0.77711000  0.38920000  0.79879000  0.00000000
C        C    0.22289000  0.61080000  0.79879000  0.00000000
C        C    0.76079000  0.63479000  0.19540000  0.00000000
C        C    0.23921000  0.36521000  0.19540000  0.00000000
C        C    0.76079000  0.36521000  0.80460000  0.00000000
C        C    0.23921000  0.63479000  0.80460000  0.00000000
N        N    0.76721000  0.65810000  0.21249000  0.00000000
N        N    0.23279000  0.34190000  0.21249000  0.00000000
N        N    0.76721000  0.34190000  0.78751000  0.00000000
N        N    0.23279000  0.65810000  0.78751000  0.00000000
C        C    0.75160000  0.50001000  0.16211000  0.00000000
C        C    0.24840000  0.49999000  0.16211000  0.00000000
C        C    0.75160000  0.49999000  0.83789000  0.00000000
C        C    0.24840000  0.50001000  0.83789000  0.00000000
C        C    0.78951000  0.51509000  0.13939000  0.00000000
C        C    0.21049000  0.48491000  0.13939000  0.00000000
C        C    0.78951000  0.48491000  0.86061000  0.00000000
C        C    0.21049000  0.51509000  0.86061000  0.00000000
C        C    0.81100000  0.53099000  0.12659000  0.00000000
C        C    0.18900000  0.46901000  0.12659000  0.00000000
C        C    0.81100000  0.46901000  0.87341000  0.00000000
C        C    0.18900000  0.53099000  0.87341000  0.00000000
N        N    0.83250000  0.51399000  0.11481000  0.00000000
N        N    0.16750000  0.48601000  0.11481000  0.00000000
N        N    0.83250000  0.48601000  0.88519000  0.00000000
N        N    0.16750000  0.51399000  0.88519000  0.00000000
C        C    0.74359000  0.57150000  0.09279000  0.00000000
C        C    0.25641000  0.42850000  0.09279000  0.00000000
C        C    0.74359000  0.42850000  0.90721000  0.00000000
C        C    0.25641000  0.57150000  0.90721000  0.00000000
N        N    0.73581000  0.54300000  0.08701000  0.00000000
N        N    0.26419000  0.45700000  0.08701000  0.00000000
N        N    0.73581000  0.45700000  0.91299000  0.00000000
N        N    0.26419000  0.54300000  0.91299000  0.00000000
C        C    0.72899000  0.53781000  0.05800000  0.00000000
C        C    0.27101000  0.46219000  0.05800000  0.00000000
C        C    0.72899000  0.46219000  0.94200000  0.00000000
C        C    0.27101000  0.53781000  0.94200000  0.00000000
C        C    0.70381000  0.56400000  0.20380000  0.00000000
C        C    0.29619000  0.43600000  0.20380000  0.00000000
C        C    0.70381000  0.43600000  0.79620000  0.00000000
C        C    0.29619000  0.56400000  0.79620000  0.00000000
C        C    0.68329000  0.56950000  0.16200000  0.00000000
C        C    0.31671000  0.43050000  0.16200000  0.00000000
C        C    0.68329000  0.43050000  0.83800000  0.00000000
C        C    0.31671000  0.56950000  0.83800000  0.00000000
C        C    0.67680000  0.57291000  0.13271000  0.00000000
C        C    0.32320000  0.42709000  0.13271000  0.00000000
C        C    0.67680000  0.42709000  0.86729000  0.00000000
C        C    0.32320000  0.57291000  0.86729000  0.00000000
N        N    0.64780000  0.57539000  0.12741000  0.00000000
N        N    0.35220000  0.42461000  0.12741000  0.00000000
N        N    0.64780000  0.42461000  0.87259000  0.00000000
N        N    0.35220000  0.57539000  0.87259000  0.00000000
N        N    0.77660000  0.58379000  0.18819000  0.00000000
N        N    0.22340000  0.41621000  0.18819000  0.00000000
N        N    0.77660000  0.41621000  0.81181000  0.00000000
N        N    0.22340000  0.58379000  0.81181000  0.00000000
N        N    0.76521000  0.52490000  0.15410000  0.00000000
N        N    0.23479000  0.47510000  0.15410000  0.00000000
N        N    0.76521000  0.47510000  0.84590000  0.00000000
N        N    0.23479000  0.52490000  0.84590000  0.00000000
N        N    0.75089000  0.58430000  0.11940000  0.00000000
N        N    0.24911000  0.41570000  0.11940000  0.00000000
N        N    0.75089000  0.41570000  0.88060000  0.00000000
N        N    0.24911000  0.58430000  0.88060000  0.00000000
N        N    0.71061000  0.56569000  0.17519000  0.00000000
N        N    0.28939000  0.43431000  0.17519000  0.00000000
N        N    0.71061000  0.43431000  0.82481000  0.00000000
N        N    0.28939000  0.56569000  0.82481000  0.00000000
Zn       Zn   0.75050000  0.56561000  0.15830000  0.00000000
Zn       Zn   0.24950000  0.43439000  0.15830000  0.00000000
Zn       Zn   0.75050000  0.43439000  0.84170000  0.00000000
Zn       Zn   0.24950000  0.56561000  0.84170000  0.00000000
H        H    0.80099000  0.54880000  0.19901000  0.00000000
H        H    0.19901000  0.45120000  0.19901000  0.00000000
H        H    0.80099000  0.45120000  0.80099000  0.00000000
H        H    0.19901000  0.54880000  0.80099000  0.00000000
H        H    0.74621000  0.63530000  0.18049000  0.00000000
H        H    0.25379000  0.36470000  0.18049000  0.00000000
H        H    0.74621000  0.36470000  0.81951000  0.00000000
H        H    0.25379000  0.63530000  0.81951000  0.00000000
H        H    0.73370000  0.50001000  0.17280000  0.00000000
H        H    0.26630000  0.49999000  0.17280000  0.00000000
H        H    0.73370000  0.49999000  0.82720000  0.00000000
H        H    0.26630000  0.50001000  0.82720000  0.00000000
H        H    0.81111000  0.55180000  0.12600000  0.00000000
H        H    0.18889000  0.44820000  0.12600000  0.00000000
H        H    0.81111000  0.44820000  0.87400000  0.00000000
H        H    0.18889000  0.55180000  0.87400000  0.00000000
H        H    0.72400000  0.51830000  0.05239000  0.00000000
H        H    0.27600000  0.48170000  0.05239000  0.00000000
H        H    0.72400000  0.48170000  0.94761000  0.00000000
H        H    0.27600000  0.51830000  0.94761000  0.00000000
H        H    0.71850000  0.56160000  0.21849000  0.00000000
H        H    0.28150000  0.43840000  0.21849000  0.00000000
H        H    0.71850000  0.43840000  0.78151000  0.00000000
H        H    0.28150000  0.56160000  0.78151000  0.00000000
H        H    0.69130000  0.57350000  0.11771000  0.00000000
H        H    0.30870000  0.42650000  0.11771000  0.00000000
H        H    0.69130000  0.42650000  0.88229000  0.00000000
H        H    0.30870000  0.57350000  0.88229000  0.00000000
C        C    0.79710000  0.20290000  0.43111000  0.00000000
C        C    0.20290000  0.79710000  0.43111000  0.00000000
C        C    0.79710000  0.79710000  0.56889000  0.00000000
C        C    0.20290000  0.20290000  0.56889000  0.00000000
C        C    0.77711000  0.20121000  0.38919000  0.00000000
C        C    0.22289000  0.79879000  0.38919000  0.00000000
C        C    0.77711000  0.79879000  0.61081000  0.00000000
C        C    0.22289000  0.20121000  0.61081000  0.00000000
C        C    0.76079000  0.19540000  0.36520000  0.00000000
C        C    0.23921000  0.80460000  0.36520000  0.00000000
C        C    0.76079000  0.80460000  0.63480000  0.00000000
C        C    0.23921000  0.19540000  0.63480000  0.00000000
N        N    0.76721000  0.21249000  0.34191000  0.00000000
N        N    0.23279000  0.78751000  0.34191000  0.00000000
N        N    0.76721000  0.78751000  0.65809000  0.00000000
N        N    0.23279000  0.21249000  0.65809000  0.00000000
C        C    0.75160000  0.16211000  0.50001000  0.00000000
C        C    0.24840000  0.83789000  0.50001000  0.00000000
C        C    0.75160000  0.83789000  0.49999000  0.00000000
C        C    0.24840000  0.16211000  0.49999000  0.00000000
C        C    0.78951000  0.13939000  0.48490000  0.00000000
C        C    0.21049000  0.86061000  0.48490000  0.00000000
C        C    0.78951000  0.86061000  0.51510000  0.00000000
C        C    0.21049000  0.13939000  0.51510000  0.00000000
C        C    0.81100000  0.12659000  0.46900000  0.00000000
C        C    0.18900000  0.87341000  0.46900000  0.00000000
C        C    0.81100000  0.87341000  0.53100000  0.00000000
C        C    0.18900000  0.12659000  0.53100000  0.00000000
N        N    0.83250000  0.11481000  0.48600000  0.00000000
N        N    0.16750000  0.88519000  0.48600000  0.00000000
N        N    0.83250000  0.88519000  0.51400000  0.00000000
N        N    0.16750000  0.11481000  0.51400000  0.00000000
C        C    0.74359000  0.09279000  0.42849000  0.00000000
C        C    0.25641000  0.90721000  0.42849000  0.00000000
C        C    0.74359000  0.90721000  0.57151000  0.00000000
C        C    0.25641000  0.09279000  0.57151000  0.00000000
N        N    0.73581000  0.08701000  0.45699000  0.00000000
N        N    0.26419000  0.91299000  0.45699000  0.00000000
N        N    0.73581000  0.91299000  0.54301000  0.00000000
N        N    0.26419000  0.08701000  0.54301000  0.00000000
C        C    0.72899000  0.05800000  0.46220000  0.00000000
C        C    0.27101000  0.94200000  0.46220000  0.00000000
C        C    0.72899000  0.94200000  0.53780000  0.00000000
C        C    0.27101000  0.05800000  0.53780000  0.00000000
C        C    0.70381000  0.20380000  0.43601000  0.00000000
C        C    0.29619000  0.79620000  0.43601000  0.00000000
C        C    0.70381000  0.79620000  0.56399000  0.00000000
C        C    0.29619000  0.20380000  0.56399000  0.00000000
C        C    0.68329000  0.16200000  0.43049000  0.00000000
C        C    0.31671000  0.83800000  0.43049000  0.00000000
C        C    0.68329000  0.83800000  0.56951000  0.00000000
C        C    0.31671000  0.16200000  0.56951000  0.00000000
C        C    0.67680000  0.13271000  0.42710000  0.00000000
C        C    0.32320000  0.86729000  0.42710000  0.00000000
C        C    0.67680000  0.86729000  0.57290000  0.00000000
C        C    0.32320000  0.13271000  0.57290000  0.00000000
N        N    0.64780000  0.12741000  0.42460000  0.00000000
N        N    0.35220000  0.87259000  0.42460000  0.00000000
N        N    0.64780000  0.87259000  0.57540000  0.00000000
N        N    0.35220000  0.12741000  0.57540000  0.00000000
N        N    0.77660000  0.18819000  0.41620000  0.00000000
N        N    0.22340000  0.81181000  0.41620000  0.00000000
N        N    0.77660000  0.81181000  0.58380000  0.00000000
N        N    0.22340000  0.18819000  0.58380000  0.00000000
N        N    0.76521000  0.15410000  0.47509000  0.00000000
N        N    0.23479000  0.84590000  0.47509000  0.00000000
N        N    0.76521000  0.84590000  0.52491000  0.00000000
N        N    0.23479000  0.15410000  0.52491000  0.00000000
N        N    0.75089000  0.11940000  0.41569000  0.00000000
N        N    0.24911000  0.88060000  0.41569000  0.00000000
N        N    0.75089000  0.88060000  0.58431000  0.00000000
N        N    0.24911000  0.11940000  0.58431000  0.00000000
N        N    0.71061000  0.17519000  0.43430000  0.00000000
N        N    0.28939000  0.82481000  0.43430000  0.00000000
N        N    0.71061000  0.82481000  0.56570000  0.00000000
N        N    0.28939000  0.17519000  0.56570000  0.00000000
Zn       Zn   0.75050000  0.15830000  0.43441000  0.00000000
Zn       Zn   0.24950000  0.84170000  0.43441000  0.00000000
Zn       Zn   0.75050000  0.84170000  0.56559000  0.00000000
Zn       Zn   0.24950000  0.15830000  0.56559000  0.00000000
H        H    0.80099000  0.19901000  0.45121000  0.00000000
H        H    0.19901000  0.80099000  0.45121000  0.00000000
H        H    0.80099000  0.80099000  0.54879000  0.00000000
H        H    0.19901000  0.19901000  0.54879000  0.00000000
H        H    0.74621000  0.18049000  0.36469000  0.00000000
H        H    0.25379000  0.81951000  0.36469000  0.00000000
H        H    0.74621000  0.81951000  0.63531000  0.00000000
H        H    0.25379000  0.18049000  0.63531000  0.00000000
H        H    0.73370000  0.17280000  0.50001000  0.00000000
H        H    0.26630000  0.82720000  0.50001000  0.00000000
H        H    0.73370000  0.82720000  0.49999000  0.00000000
H        H    0.26630000  0.17280000  0.49999000  0.00000000
H        H    0.81111000  0.12600000  0.44819000  0.00000000
H        H    0.18889000  0.87400000  0.44819000  0.00000000
H        H    0.81111000  0.87400000  0.55181000  0.00000000
H        H    0.18889000  0.12600000  0.55181000  0.00000000
H        H    0.72400000  0.05239000  0.48171000  0.00000000
H        H    0.27600000  0.94761000  0.48171000  0.00000000
H        H    0.72400000  0.94761000  0.51829000  0.00000000
H        H    0.27600000  0.05239000  0.51829000  0.00000000
H        H    0.71850000  0.21849000  0.43841000  0.00000000
H        H    0.28150000  0.78151000  0.43841000  0.00000000
H        H    0.71850000  0.78151000  0.56159000  0.00000000
H        H    0.28150000  0.21849000  0.56159000  0.00000000
H        H    0.69130000  0.11771000  0.42651000  0.00000000
H        H    0.30870000  0.88229000  0.42651000  0.00000000
H        H    0.69130000  0.88229000  0.57349000  0.00000000
H        H    0.30870000  0.11771000  0.57349000  0.00000000
C        C    0.29710000  0.56890000  0.29709000  0.00000000
C        C    0.70290000  0.43110000  0.29709000  0.00000000
C        C    0.29710000  0.43110000  0.70291000  0.00000000
C        C    0.70290000  0.56890000  0.70291000  0.00000000
C        C    0.29880000  0.61080000  0.27710000  0.00000000
C        C    0.70120000  0.38920000  0.27710000  0.00000000
C        C    0.29880000  0.38920000  0.72290000  0.00000000
C        C    0.70120000  0.61080000  0.72290000  0.00000000
C        C    0.30460000  0.63479000  0.26081000  0.00000000
C        C    0.69540000  0.36521000  0.26081000  0.00000000
C        C    0.30460000  0.36521000  0.73919000  0.00000000
C        C    0.69540000  0.63479000  0.73919000  0.00000000
N        N    0.28749000  0.65810000  0.26721000  0.00000000
N        N    0.71251000  0.34190000  0.26721000  0.00000000
N        N    0.28749000  0.34190000  0.73279000  0.00000000
N        N    0.71251000  0.65810000  0.73279000  0.00000000
C        C    0.33790000  0.50001000  0.25159000  0.00000000
C        C    0.66210000  0.49999000  0.25159000  0.00000000
C        C    0.33790000  0.49999000  0.74841000  0.00000000
C        C    0.66210000  0.50001000  0.74841000  0.00000000
C        C    0.36059000  0.51509000  0.28950000  0.00000000
C        C    0.63941000  0.48491000  0.28950000  0.00000000
C        C    0.36059000  0.48491000  0.71050000  0.00000000
C        C    0.63941000  0.51509000  0.71050000  0.00000000
C        C    0.37339000  0.53099000  0.31099000  0.00000000
C        C    0.62661000  0.46901000  0.31099000  0.00000000
C        C    0.37339000  0.46901000  0.68901000  0.00000000
C        C    0.62661000  0.53099000  0.68901000  0.00000000
N        N    0.38520000  0.51399000  0.33250000  0.00000000
N        N    0.61480000  0.48601000  0.33250000  0.00000000
N        N    0.38520000  0.48601000  0.66750000  0.00000000
N        N    0.61480000  0.51399000  0.66750000  0.00000000
C        C    0.38729000  0.61271000  0.25460000  0.00000000
C        C    0.61271000  0.38729000  0.25460000  0.00000000
C        C    0.38729000  0.38729000  0.74540000  0.00000000
C        C    0.61271000  0.61271000  0.74540000  0.00000000
C        C    0.40719000  0.57150000  0.24361000  0.00000000
C        C    0.59281000  0.42850000  0.24361000  0.00000000
C        C    0.40719000  0.42850000  0.75639000  0.00000000
C        C    0.59281000  0.57150000  0.75639000  0.00000000
C        C    0.41300000  0.54300000  0.23580000  0.00000000
C        C    0.58700000  0.45700000  0.23580000  0.00000000
C        C    0.41300000  0.45700000  0.76420000  0.00000000
C        C    0.58700000  0.54300000  0.76420000  0.00000000
N        N    0.44200000  0.53781000  0.22901000  0.00000000
N        N    0.55800000  0.46219000  0.22901000  0.00000000
N        N    0.44200000  0.46219000  0.77099000  0.00000000
N        N    0.55800000  0.53781000  0.77099000  0.00000000
C        C    0.29620000  0.56400000  0.20380000  0.00000000
C        C    0.70380000  0.43600000  0.20380000  0.00000000
C        C    0.29620000  0.43600000  0.79620000  0.00000000
C        C    0.70380000  0.56400000  0.79620000  0.00000000
C        C    0.33801000  0.56950000  0.18331000  0.00000000
C        C    0.66199000  0.43050000  0.18331000  0.00000000
C        C    0.33801000  0.43050000  0.81669000  0.00000000
C        C    0.66199000  0.56950000  0.81669000  0.00000000
C        C    0.36730000  0.57291000  0.17680000  0.00000000
C        C    0.63270000  0.42709000  0.17680000  0.00000000
C        C    0.36730000  0.42709000  0.82320000  0.00000000
C        C    0.63270000  0.57291000  0.82320000  0.00000000
N        N    0.37260000  0.57539000  0.14779000  0.00000000
N        N    0.62740000  0.42461000  0.14779000  0.00000000
N        N    0.37260000  0.42461000  0.85221000  0.00000000
N        N    0.62740000  0.57539000  0.85221000  0.00000000
N        N    0.31179000  0.58379000  0.27660000  0.00000000
N        N    0.68821000  0.41621000  0.27660000  0.00000000
N        N    0.31179000  0.41621000  0.72340000  0.00000000
N        N    0.68821000  0.58379000  0.72340000  0.00000000
N        N    0.34590000  0.52490000  0.26520000  0.00000000
N        N    0.65410000  0.47510000  0.26520000  0.00000000
N        N    0.34590000  0.47510000  0.73480000  0.00000000
N        N    0.65410000  0.52490000  0.73480000  0.00000000
N        N    0.38060000  0.58430000  0.25091000  0.00000000
N        N    0.61940000  0.41570000  0.25091000  0.00000000
N        N    0.38060000  0.41570000  0.74909000  0.00000000
N        N    0.61940000  0.58430000  0.74909000  0.00000000
N        N    0.32479000  0.56569000  0.21060000  0.00000000
N        N    0.67521000  0.43431000  0.21060000  0.00000000
N        N    0.32479000  0.43431000  0.78940000  0.00000000
N        N    0.67521000  0.56569000  0.78940000  0.00000000
Zn       Zn   0.34170000  0.56561000  0.25049000  0.00000000
Zn       Zn   0.65830000  0.43439000  0.25049000  0.00000000
Zn       Zn   0.34170000  0.43439000  0.74951000  0.00000000
Zn       Zn   0.65830000  0.56561000  0.74951000  0.00000000
H        H    0.30100000  0.54880000  0.30101000  0.00000000
H        H    0.69900000  0.45120000  0.30101000  0.00000000
H        H    0.30100000  0.45120000  0.69899000  0.00000000
H        H    0.69900000  0.54880000  0.69899000  0.00000000
H        H    0.31949000  0.63530000  0.24620000  0.00000000
H        H    0.68051000  0.36470000  0.24620000  0.00000000
H        H    0.31949000  0.36470000  0.75380000  0.00000000
H        H    0.68051000  0.63530000  0.75380000  0.00000000
H        H    0.32721000  0.50001000  0.23369000  0.00000000
H        H    0.67279000  0.49999000  0.23369000  0.00000000
H        H    0.32721000  0.49999000  0.76631000  0.00000000
H        H    0.67279000  0.50001000  0.76631000  0.00000000
H        H    0.37401000  0.55180000  0.31110000  0.00000000
H        H    0.62599000  0.44820000  0.31110000  0.00000000
H        H    0.37401000  0.44820000  0.68890000  0.00000000
H        H    0.62599000  0.55180000  0.68890000  0.00000000
H        H    0.37291000  0.62709000  0.25940000  0.00000000
H        H    0.62709000  0.37291000  0.25940000  0.00000000
H        H    0.37291000  0.37291000  0.74060000  0.00000000
H        H    0.62709000  0.62709000  0.74060000  0.00000000
H        H    0.39831000  0.52820000  0.23521000  0.00000000
H        H    0.60169000  0.47180000  0.23521000  0.00000000
H        H    0.39831000  0.47180000  0.76479000  0.00000000
H        H    0.60169000  0.52820000  0.76479000  0.00000000
H        H    0.28151000  0.56160000  0.21849000  0.00000000
H        H    0.71849000  0.43840000  0.21849000  0.00000000
H        H    0.28151000  0.43840000  0.78151000  0.00000000
H        H    0.71849000  0.56160000  0.78151000  0.00000000
H        H    0.38230000  0.57350000  0.19129000  0.00000000
H        H    0.61770000  0.42650000  0.19129000  0.00000000
H        H    0.38230000  0.42650000  0.80871000  0.00000000
H        H    0.61770000  0.57350000  0.80871000  0.00000000
C        C    0.00000000  0.25160000  0.16211000  0.00000000
C        C    0.00000000  0.74840000  0.83789000  0.00000000
H        H    0.00000000  0.23370000  0.17280000  0.00000000
H        H    0.00000000  0.76630000  0.82720000  0.00000000
C        C    0.88920000  0.72291000  0.79880000  0.00000000
C        C    0.11080000  0.27709000  0.79880000  0.00000000
C        C    0.88920000  0.27709000  0.20120000  0.00000000
C        C    0.11080000  0.72291000  0.20120000  0.00000000
N        N    0.86520000  0.73921000  0.80461000  0.00000000
N        N    0.13480000  0.26079000  0.80461000  0.00000000
N        N    0.86520000  0.26079000  0.19539000  0.00000000
N        N    0.13480000  0.73921000  0.19539000  0.00000000
C        C    0.84189000  0.73281000  0.78750000  0.00000000
C        C    0.15811000  0.26719000  0.78750000  0.00000000
C        C    0.84189000  0.26719000  0.21250000  0.00000000
C        C    0.15811000  0.73281000  0.21250000  0.00000000
C        C    0.00000000  0.25160000  0.83790000  0.00000000
C        C    0.00000000  0.74840000  0.16210000  0.00000000
C        C    0.98490000  0.71051000  0.86060000  0.00000000
C        C    0.01510000  0.28949000  0.86060000  0.00000000
C        C    0.98490000  0.28949000  0.13940000  0.00000000
C        C    0.01510000  0.71051000  0.13940000  0.00000000
C        C    0.96900000  0.68900000  0.87340000  0.00000000
C        C    0.03100000  0.31100000  0.87340000  0.00000000
C        C    0.96900000  0.31100000  0.12660000  0.00000000
C        C    0.03100000  0.68900000  0.12660000  0.00000000
N        N    0.98600000  0.66749000  0.88521000  0.00000000
N        N    0.01400000  0.33251000  0.88521000  0.00000000
N        N    0.98600000  0.33251000  0.11479000  0.00000000
N        N    0.01400000  0.66749000  0.11479000  0.00000000
C        C    0.88731000  0.74541000  0.88729000  0.00000000
C        C    0.11269000  0.25459000  0.88729000  0.00000000
C        C    0.88731000  0.25459000  0.11271000  0.00000000
C        C    0.11269000  0.74541000  0.11271000  0.00000000
C        C    0.92850000  0.75640000  0.90720000  0.00000000
C        C    0.07150000  0.24360000  0.90720000  0.00000000
C        C    0.92850000  0.24360000  0.09280000  0.00000000
C        C    0.07150000  0.75640000  0.09280000  0.00000000
C        C    0.95700000  0.76421000  0.91300000  0.00000000
C        C    0.04300000  0.23579000  0.91300000  0.00000000
C        C    0.95700000  0.23579000  0.08700000  0.00000000
C        C    0.04300000  0.76421000  0.08700000  0.00000000
N        N    0.96221000  0.77100000  0.94201000  0.00000000
N        N    0.03779000  0.22900000  0.94201000  0.00000000
N        N    0.96221000  0.22900000  0.05799000  0.00000000
N        N    0.03779000  0.77100000  0.05799000  0.00000000
C        C    0.93599000  0.79621000  0.79621000  0.00000000
C        C    0.06401000  0.20379000  0.79621000  0.00000000
C        C    0.93599000  0.20379000  0.20379000  0.00000000
C        C    0.06401000  0.79621000  0.20379000  0.00000000
C        C    0.93050000  0.81670000  0.83799000  0.00000000
C        C    0.06950000  0.18330000  0.83799000  0.00000000
C        C    0.93050000  0.18330000  0.16201000  0.00000000
C        C    0.06950000  0.81670000  0.16201000  0.00000000
C        C    0.92711000  0.82319000  0.86730000  0.00000000
C        C    0.07289000  0.17681000  0.86730000  0.00000000
C        C    0.92711000  0.17681000  0.13270000  0.00000000
C        C    0.07289000  0.82319000  0.13270000  0.00000000
N        N    0.92460000  0.85220000  0.87260000  0.00000000
N        N    0.07540000  0.14780000  0.87260000  0.00000000
N        N    0.92460000  0.14780000  0.12740000  0.00000000
N        N    0.07540000  0.85220000  0.12740000  0.00000000
N        N    0.91620000  0.72339000  0.81180000  0.00000000
N        N    0.08380000  0.27661000  0.81180000  0.00000000
N        N    0.91620000  0.27661000  0.18820000  0.00000000
N        N    0.08380000  0.72339000  0.18820000  0.00000000
N        N    0.97509000  0.73481000  0.84591000  0.00000000
N        N    0.02491000  0.26519000  0.84591000  0.00000000
N        N    0.97509000  0.26519000  0.15409000  0.00000000
N        N    0.02491000  0.73481000  0.15409000  0.00000000
N        N    0.91570000  0.74910000  0.88061000  0.00000000
N        N    0.08430000  0.25090000  0.88061000  0.00000000
N        N    0.91570000  0.25090000  0.11939000  0.00000000
N        N    0.08430000  0.74910000  0.11939000  0.00000000
N        N    0.93430000  0.78939000  0.82480000  0.00000000
N        N    0.06570000  0.21061000  0.82480000  0.00000000
N        N    0.93430000  0.21061000  0.17520000  0.00000000
N        N    0.06570000  0.78939000  0.17520000  0.00000000
Zn       Zn   0.93441000  0.74950000  0.84171000  0.00000000
Zn       Zn   0.06559000  0.25050000  0.84171000  0.00000000
Zn       Zn   0.93441000  0.25050000  0.15829000  0.00000000
Zn       Zn   0.06559000  0.74950000  0.15829000  0.00000000
H        H    0.82441000  0.74369000  0.79029000  0.00000000
H        H    0.17559000  0.25631000  0.79029000  0.00000000
H        H    0.82441000  0.25631000  0.20971000  0.00000000
H        H    0.17559000  0.74369000  0.20971000  0.00000000
H        H    0.00000000  0.23370000  0.82719000  0.00000000
H        H    0.00000000  0.76630000  0.17281000  0.00000000
H        H    0.94820000  0.68891000  0.87399000  0.00000000
H        H    0.05180000  0.31109000  0.87399000  0.00000000
H        H    0.94820000  0.31109000  0.12601000  0.00000000
H        H    0.05180000  0.68891000  0.12601000  0.00000000
H        H    0.87290000  0.74059000  0.87289000  0.00000000
H        H    0.12710000  0.25941000  0.87289000  0.00000000
H        H    0.87290000  0.25941000  0.12711000  0.00000000
H        H    0.12710000  0.74059000  0.12711000  0.00000000
H        H    0.97180000  0.76480000  0.89829000  0.00000000
H        H    0.02820000  0.23520000  0.89829000  0.00000000
H        H    0.97180000  0.23520000  0.10171000  0.00000000
H        H    0.02820000  0.76480000  0.10171000  0.00000000
H        H    0.93839000  0.78149000  0.78149000  0.00000000
H        H    0.06161000  0.21851000  0.78149000  0.00000000
H        H    0.93839000  0.21851000  0.21851000  0.00000000
H        H    0.06161000  0.78149000  0.21851000  0.00000000
H        H    0.92649000  0.80870000  0.88230000  0.00000000
H        H    0.07351000  0.19130000  0.88230000  0.00000000
H        H    0.92649000  0.19130000  0.11770000  0.00000000
H        H    0.07351000  0.80870000  0.11770000  0.00000000
C        C    0.70291000  0.29709000  0.43111000  0.00000000
C        C    0.29709000  0.70291000  0.43111000  0.00000000
C        C    0.70291000  0.70291000  0.56889000  0.00000000
C        C    0.29709000  0.29709000  0.56889000  0.00000000
C        C    0.70119000  0.27710000  0.38919000  0.00000000
C        C    0.29881000  0.72290000  0.38919000  0.00000000
C        C    0.70119000  0.72290000  0.61081000  0.00000000
C        C    0.29881000  0.27710000  0.61081000  0.00000000
C        C    0.69541000  0.26081000  0.36520000  0.00000000
C        C    0.30459000  0.73919000  0.36520000  0.00000000
C        C    0.69541000  0.73919000  0.63480000  0.00000000
C        C    0.30459000  0.26081000  0.63480000  0.00000000
N        N    0.71250000  0.26721000  0.34191000  0.00000000
N        N    0.28750000  0.73279000  0.34191000  0.00000000
N        N    0.71250000  0.73279000  0.65809000  0.00000000
N        N    0.28750000  0.26721000  0.65809000  0.00000000
C        C    0.63940000  0.28950000  0.48490000  0.00000000
C        C    0.36060000  0.71050000  0.48490000  0.00000000
C        C    0.63940000  0.71050000  0.51510000  0.00000000
C        C    0.36060000  0.28950000  0.51510000  0.00000000
N        N    0.62660000  0.31099000  0.46900000  0.00000000
N        N    0.37340000  0.68901000  0.46900000  0.00000000
N        N    0.62660000  0.68901000  0.53100000  0.00000000
N        N    0.37340000  0.31099000  0.53100000  0.00000000
C        C    0.61479000  0.33250000  0.48600000  0.00000000
C        C    0.38521000  0.66750000  0.48600000  0.00000000
C        C    0.61479000  0.66750000  0.51400000  0.00000000
C        C    0.38521000  0.33250000  0.51400000  0.00000000
C        C    0.61270000  0.25460000  0.38730000  0.00000000
C        C    0.38730000  0.74540000  0.38730000  0.00000000
C        C    0.61270000  0.74540000  0.61270000  0.00000000
C        C    0.38730000  0.25460000  0.61270000  0.00000000
C        C    0.59280000  0.24361000  0.42849000  0.00000000
C        C    0.40720000  0.75639000  0.42849000  0.00000000
C        C    0.59280000  0.75639000  0.57151000  0.00000000
C        C    0.40720000  0.24361000  0.57151000  0.00000000
C        C    0.58699000  0.23580000  0.45699000  0.00000000
C        C    0.41301000  0.76420000  0.45699000  0.00000000
C        C    0.58699000  0.76420000  0.54301000  0.00000000
C        C    0.41301000  0.23580000  0.54301000  0.00000000
N        N    0.55801000  0.22901000  0.46220000  0.00000000
N        N    0.44199000  0.77099000  0.46220000  0.00000000
N        N    0.55801000  0.77099000  0.53780000  0.00000000
N        N    0.44199000  0.22901000  0.53780000  0.00000000
C        C    0.66200000  0.18331000  0.43049000  0.00000000
C        C    0.33800000  0.81669000  0.43049000  0.00000000
C        C    0.66200000  0.81669000  0.56951000  0.00000000
C        C    0.33800000  0.18331000  0.56951000  0.00000000
N        N    0.63269000  0.17680000  0.42710000  0.00000000
N        N    0.36731000  0.82320000  0.42710000  0.00000000
N        N    0.63269000  0.82320000  0.57290000  0.00000000
N        N    0.36731000  0.17680000  0.57290000  0.00000000
C        C    0.62739000  0.14779000  0.42460000  0.00000000
C        C    0.37261000  0.85221000  0.42460000  0.00000000
C        C    0.62739000  0.85221000  0.57540000  0.00000000
C        C    0.37261000  0.14779000  0.57540000  0.00000000
N        N    0.68820000  0.27660000  0.41620000  0.00000000
N        N    0.31180000  0.72340000  0.41620000  0.00000000
N        N    0.68820000  0.72340000  0.58380000  0.00000000
N        N    0.31180000  0.27660000  0.58380000  0.00000000
N        N    0.65411000  0.26520000  0.47509000  0.00000000
N        N    0.34589000  0.73480000  0.47509000  0.00000000
N        N    0.65411000  0.73480000  0.52491000  0.00000000
N        N    0.34589000  0.26520000  0.52491000  0.00000000
N        N    0.61941000  0.25091000  0.41569000  0.00000000
N        N    0.38059000  0.74909000  0.41569000  0.00000000
N        N    0.61941000  0.74909000  0.58431000  0.00000000
N        N    0.38059000  0.25091000  0.58431000  0.00000000
N        N    0.67520000  0.21060000  0.43430000  0.00000000
N        N    0.32480000  0.78940000  0.43430000  0.00000000
N        N    0.67520000  0.78940000  0.56570000  0.00000000
N        N    0.32480000  0.21060000  0.56570000  0.00000000
Zn       Zn   0.65831000  0.25049000  0.43441000  0.00000000
Zn       Zn   0.34169000  0.74951000  0.43441000  0.00000000
Zn       Zn   0.65831000  0.74951000  0.56559000  0.00000000
Zn       Zn   0.34169000  0.25049000  0.56559000  0.00000000
H        H    0.69899000  0.30101000  0.45121000  0.00000000
H        H    0.30101000  0.69899000  0.45121000  0.00000000
H        H    0.69899000  0.69899000  0.54879000  0.00000000
H        H    0.30101000  0.30101000  0.54879000  0.00000000
H        H    0.68050000  0.24620000  0.36469000  0.00000000
H        H    0.31950000  0.75380000  0.36469000  0.00000000
H        H    0.68050000  0.75380000  0.63531000  0.00000000
H        H    0.31950000  0.24620000  0.63531000  0.00000000
H        H    0.60579000  0.34871000  0.47630000  0.00000000
H        H    0.39421000  0.65129000  0.47630000  0.00000000
H        H    0.60579000  0.65129000  0.52370000  0.00000000
H        H    0.39421000  0.34871000  0.52370000  0.00000000
H        H    0.62710000  0.25940000  0.37290000  0.00000000
H        H    0.37290000  0.74060000  0.37290000  0.00000000
H        H    0.62710000  0.74060000  0.62710000  0.00000000
H        H    0.37290000  0.25940000  0.62710000  0.00000000
H        H    0.60170000  0.23521000  0.47179000  0.00000000
H        H    0.39830000  0.76479000  0.47179000  0.00000000
H        H    0.60170000  0.76479000  0.52821000  0.00000000
H        H    0.39830000  0.23521000  0.52821000  0.00000000
H        H    0.60751000  0.14159000  0.42271000  0.00000000
H        H    0.39249000  0.85841000  0.42271000  0.00000000
H        H    0.60751000  0.85841000  0.57729000  0.00000000
H        H    0.39249000  0.14159000  0.57729000  0.00000000
C        C    0.11079000  0.79880000  0.27710000  0.00000000
C        C    0.88921000  0.20120000  0.27710000  0.00000000
C        C    0.11079000  0.20120000  0.72290000  0.00000000
C        C    0.88921000  0.79880000  0.72290000  0.00000000
N        N    0.13481000  0.80461000  0.26081000  0.00000000
N        N    0.86519000  0.19539000  0.26081000  0.00000000
N        N    0.13481000  0.19539000  0.73919000  0.00000000
N        N    0.86519000  0.80461000  0.73919000  0.00000000
C        C    0.15810000  0.78750000  0.26721000  0.00000000
C        C    0.84190000  0.21250000  0.26721000  0.00000000
C        C    0.15810000  0.21250000  0.73279000  0.00000000
C        C    0.84190000  0.78750000  0.73279000  0.00000000
C        C    0.01511000  0.86060000  0.28950000  0.00000000
C        C    0.98489000  0.13940000  0.28950000  0.00000000
C        C    0.01511000  0.13940000  0.71050000  0.00000000
C        C    0.98489000  0.86060000  0.71050000  0.00000000
N        N    0.03101000  0.87340000  0.31099000  0.00000000
N        N    0.96899000  0.12660000  0.31099000  0.00000000
N        N    0.03101000  0.12660000  0.68901000  0.00000000
N        N    0.96899000  0.87340000  0.68901000  0.00000000
C        C    0.01401000  0.88521000  0.33250000  0.00000000
C        C    0.98599000  0.11479000  0.33250000  0.00000000
C        C    0.01401000  0.11479000  0.66750000  0.00000000
C        C    0.98599000  0.88521000  0.66750000  0.00000000
C        C    0.11271000  0.88729000  0.25460000  0.00000000
C        C    0.88729000  0.11271000  0.25460000  0.00000000
C        C    0.11271000  0.11271000  0.74540000  0.00000000
C        C    0.88729000  0.88729000  0.74540000  0.00000000
C        C    0.07149000  0.90720000  0.24361000  0.00000000
C        C    0.92851000  0.09280000  0.24361000  0.00000000
C        C    0.07149000  0.09280000  0.75639000  0.00000000
C        C    0.92851000  0.90720000  0.75639000  0.00000000
C        C    0.04299000  0.91300000  0.23580000  0.00000000
C        C    0.95701000  0.08700000  0.23580000  0.00000000
C        C    0.04299000  0.08700000  0.76420000  0.00000000
C        C    0.95701000  0.91300000  0.76420000  0.00000000
N        N    0.03780000  0.94201000  0.22901000  0.00000000
N        N    0.96220000  0.05799000  0.22901000  0.00000000
N        N    0.03780000  0.05799000  0.77099000  0.00000000
N        N    0.96220000  0.94201000  0.77099000  0.00000000
C        C    0.06949000  0.83799000  0.18331000  0.00000000
C        C    0.93051000  0.16201000  0.18331000  0.00000000
C        C    0.06949000  0.16201000  0.81669000  0.00000000
C        C    0.93051000  0.83799000  0.81669000  0.00000000
N        N    0.07290000  0.86730000  0.17680000  0.00000000
N        N    0.92710000  0.13270000  0.17680000  0.00000000
N        N    0.07290000  0.13270000  0.82320000  0.00000000
N        N    0.92710000  0.86730000  0.82320000  0.00000000
C        C    0.07541000  0.87260000  0.14779000  0.00000000
C        C    0.92459000  0.12740000  0.14779000  0.00000000
C        C    0.07541000  0.12740000  0.85221000  0.00000000
C        C    0.92459000  0.87260000  0.85221000  0.00000000
N        N    0.08381000  0.81180000  0.27660000  0.00000000
N        N    0.91619000  0.18820000  0.27660000  0.00000000
N        N    0.08381000  0.18820000  0.72340000  0.00000000
N        N    0.91619000  0.81180000  0.72340000  0.00000000
N        N    0.02489000  0.84591000  0.26520000  0.00000000
N        N    0.97511000  0.15409000  0.26520000  0.00000000
N        N    0.02489000  0.15409000  0.73480000  0.00000000
N        N    0.97511000  0.84591000  0.73480000  0.00000000
N        N    0.08429000  0.88061000  0.25091000  0.00000000
N        N    0.91571000  0.11939000  0.25091000  0.00000000
N        N    0.08429000  0.11939000  0.74909000  0.00000000
N        N    0.91571000  0.88061000  0.74909000  0.00000000
N        N    0.06571000  0.82480000  0.21060000  0.00000000
N        N    0.93429000  0.17520000  0.21060000  0.00000000
N        N    0.06571000  0.17520000  0.78940000  0.00000000
N        N    0.93429000  0.82480000  0.78940000  0.00000000
Zn       Zn   0.06560000  0.84171000  0.25049000  0.00000000
Zn       Zn   0.93440000  0.15829000  0.25049000  0.00000000
Zn       Zn   0.06560000  0.15829000  0.74951000  0.00000000
Zn       Zn   0.93440000  0.84171000  0.74951000  0.00000000
H        H    0.17560000  0.79029000  0.25630000  0.00000000
H        H    0.82440000  0.20971000  0.25630000  0.00000000
H        H    0.17560000  0.20971000  0.74370000  0.00000000
H        H    0.82440000  0.79029000  0.74370000  0.00000000
H        H    0.02371000  0.89420000  0.34871000  0.00000000
H        H    0.97629000  0.10580000  0.34871000  0.00000000
H        H    0.02371000  0.10580000  0.65129000  0.00000000
H        H    0.97629000  0.89420000  0.65129000  0.00000000
H        H    0.12711000  0.87289000  0.25940000  0.00000000
H        H    0.87289000  0.12711000  0.25940000  0.00000000
H        H    0.12711000  0.12711000  0.74060000  0.00000000
H        H    0.87289000  0.87289000  0.74060000  0.00000000
H        H    0.02819000  0.89829000  0.23521000  0.00000000
H        H    0.97181000  0.10171000  0.23521000  0.00000000
H        H    0.02819000  0.10171000  0.76479000  0.00000000
H        H    0.97181000  0.89829000  0.76479000  0.00000000
H        H    0.07730000  0.89251000  0.14159000  0.00000000
H        H    0.92270000  0.10749000  0.14159000  0.00000000
H        H    0.07730000  0.10749000  0.85841000  0.00000000
H        H    0.92270000  0.89251000  0.85841000  0.00000000
C        C    0.20289000  0.43111000  0.79711000  0.00000000
C        C    0.79711000  0.56889000  0.79711000  0.00000000
C        C    0.20289000  0.56889000  0.20289000  0.00000000
C        C    0.79711000  0.43111000  0.20289000  0.00000000
C        C    0.22290000  0.38919000  0.79880000  0.00000000
C        C    0.77710000  0.61081000  0.79880000  0.00000000
C        C    0.22290000  0.61081000  0.20120000  0.00000000
C        C    0.77710000  0.38919000  0.20120000  0.00000000
C        C    0.23920000  0.36520000  0.80461000  0.00000000
C        C    0.76080000  0.63480000  0.80461000  0.00000000
C        C    0.23920000  0.63480000  0.19539000  0.00000000
C        C    0.76080000  0.36520000  0.19539000  0.00000000
N        N    0.23280000  0.34191000  0.78750000  0.00000000
N        N    0.76720000  0.65809000  0.78750000  0.00000000
N        N    0.23280000  0.65809000  0.21250000  0.00000000
N        N    0.76720000  0.34191000  0.21250000  0.00000000
C        C    0.21050000  0.48490000  0.86060000  0.00000000
C        C    0.78950000  0.51510000  0.86060000  0.00000000
C        C    0.21050000  0.51510000  0.13940000  0.00000000
C        C    0.78950000  0.48490000  0.13940000  0.00000000
N        N    0.18899000  0.46900000  0.87340000  0.00000000
N        N    0.81101000  0.53100000  0.87340000  0.00000000
N        N    0.18899000  0.53100000  0.12660000  0.00000000
N        N    0.81101000  0.46900000  0.12660000  0.00000000
C        C    0.16751000  0.48600000  0.88521000  0.00000000
C        C    0.83249000  0.51400000  0.88521000  0.00000000
C        C    0.16751000  0.51400000  0.11479000  0.00000000
C        C    0.83249000  0.48600000  0.11479000  0.00000000
C        C    0.25640000  0.42849000  0.90720000  0.00000000
C        C    0.74360000  0.57151000  0.90720000  0.00000000
C        C    0.25640000  0.57151000  0.09280000  0.00000000
C        C    0.74360000  0.42849000  0.09280000  0.00000000
N        N    0.26420000  0.45699000  0.91300000  0.00000000
N        N    0.73580000  0.54301000  0.91300000  0.00000000
N        N    0.26420000  0.54301000  0.08700000  0.00000000
N        N    0.73580000  0.45699000  0.08700000  0.00000000
C        C    0.27100000  0.46220000  0.94201000  0.00000000
C        C    0.72900000  0.53780000  0.94201000  0.00000000
C        C    0.27100000  0.53780000  0.05799000  0.00000000
C        C    0.72900000  0.46220000  0.05799000  0.00000000
C        C    0.31670000  0.43049000  0.83799000  0.00000000
C        C    0.68330000  0.56951000  0.83799000  0.00000000
C        C    0.31670000  0.56951000  0.16201000  0.00000000
C        C    0.68330000  0.43049000  0.16201000  0.00000000
N        N    0.32321000  0.42710000  0.86730000  0.00000000
N        N    0.67679000  0.57290000  0.86730000  0.00000000
N        N    0.32321000  0.57290000  0.13270000  0.00000000
N        N    0.67679000  0.42710000  0.13270000  0.00000000
C        C    0.35219000  0.42460000  0.87260000  0.00000000
C        C    0.64781000  0.57540000  0.87260000  0.00000000
C        C    0.35219000  0.57540000  0.12740000  0.00000000
C        C    0.64781000  0.42460000  0.12740000  0.00000000
N        N    0.22341000  0.41620000  0.81180000  0.00000000
N        N    0.77659000  0.58380000  0.81180000  0.00000000
N        N    0.22341000  0.58380000  0.18820000  0.00000000
N        N    0.77659000  0.41620000  0.18820000  0.00000000
N        N    0.23480000  0.47509000  0.84591000  0.00000000
N        N    0.76520000  0.52491000  0.84591000  0.00000000
N        N    0.23480000  0.52491000  0.15409000  0.00000000
N        N    0.76520000  0.47509000  0.15409000  0.00000000
N        N    0.24910000  0.41569000  0.88061000  0.00000000
N        N    0.75090000  0.58431000  0.88061000  0.00000000
N        N    0.24910000  0.58431000  0.11939000  0.00000000
N        N    0.75090000  0.41569000  0.11939000  0.00000000
N        N    0.28941000  0.43430000  0.82480000  0.00000000
N        N    0.71059000  0.56570000  0.82480000  0.00000000
N        N    0.28941000  0.56570000  0.17520000  0.00000000
N        N    0.71059000  0.43430000  0.17520000  0.00000000
Zn       Zn   0.24949000  0.43441000  0.84171000  0.00000000
Zn       Zn   0.75051000  0.56559000  0.84171000  0.00000000
Zn       Zn   0.24949000  0.56559000  0.15829000  0.00000000
Zn       Zn   0.75051000  0.43441000  0.15829000  0.00000000
H        H    0.19900000  0.45121000  0.80100000  0.00000000
H        H    0.80100000  0.54879000  0.80100000  0.00000000
H        H    0.19900000  0.54879000  0.19900000  0.00000000
H        H    0.80100000  0.45121000  0.19900000  0.00000000
H        H    0.25380000  0.36469000  0.81950000  0.00000000
H        H    0.74620000  0.63531000  0.81950000  0.00000000
H        H    0.25380000  0.63531000  0.18050000  0.00000000
H        H    0.74620000  0.36469000  0.18050000  0.00000000
H        H    0.15130000  0.47630000  0.89420000  0.00000000
H        H    0.84870000  0.52370000  0.89420000  0.00000000
H        H    0.15130000  0.52370000  0.10580000  0.00000000
H        H    0.84870000  0.47630000  0.10580000  0.00000000
H        H    0.27599000  0.48171000  0.94759000  0.00000000
H        H    0.72401000  0.51829000  0.94759000  0.00000000
H        H    0.27599000  0.51829000  0.05241000  0.00000000
H        H    0.72401000  0.48171000  0.05241000  0.00000000
H        H    0.35839000  0.42271000  0.89251000  0.00000000
H        H    0.64161000  0.57729000  0.89251000  0.00000000
H        H    0.35839000  0.57729000  0.10749000  0.00000000
H        H    0.64161000  0.42271000  0.10749000  0.00000000
C        C    0.20289000  0.79711000  0.56890000  0.00000000
C        C    0.79711000  0.20289000  0.56890000  0.00000000
C        C    0.20289000  0.20289000  0.43110000  0.00000000
C        C    0.79711000  0.79711000  0.43110000  0.00000000
C        C    0.22290000  0.79880000  0.61080000  0.00000000
C        C    0.77710000  0.20120000  0.61080000  0.00000000
C        C    0.22290000  0.20120000  0.38920000  0.00000000
C        C    0.77710000  0.79880000  0.38920000  0.00000000
C        C    0.23920000  0.80461000  0.63479000  0.00000000
C        C    0.76080000  0.19539000  0.63479000  0.00000000
C        C    0.23920000  0.19539000  0.36521000  0.00000000
C        C    0.76080000  0.80461000  0.36521000  0.00000000
N        N    0.23280000  0.78750000  0.65810000  0.00000000
N        N    0.76720000  0.21250000  0.65810000  0.00000000
N        N    0.23280000  0.21250000  0.34190000  0.00000000
N        N    0.76720000  0.78750000  0.34190000  0.00000000
C        C    0.21050000  0.86060000  0.51509000  0.00000000
C        C    0.78950000  0.13940000  0.51509000  0.00000000
C        C    0.21050000  0.13940000  0.48491000  0.00000000
C        C    0.78950000  0.86060000  0.48491000  0.00000000
N        N    0.18899000  0.87340000  0.53099000  0.00000000
N        N    0.81101000  0.12660000  0.53099000  0.00000000
N        N    0.18899000  0.12660000  0.46901000  0.00000000
N        N    0.81101000  0.87340000  0.46901000  0.00000000
C        C    0.16751000  0.88521000  0.51399000  0.00000000
C        C    0.83249000  0.11479000  0.51399000  0.00000000
C        C    0.16751000  0.11479000  0.48601000  0.00000000
C        C    0.83249000  0.88521000  0.48601000  0.00000000
C        C    0.25640000  0.90720000  0.57150000  0.00000000
C        C    0.74360000  0.09280000  0.57150000  0.00000000
C        C    0.25640000  0.09280000  0.42850000  0.00000000
C        C    0.74360000  0.90720000  0.42850000  0.00000000
N        N    0.26420000  0.91300000  0.54300000  0.00000000
N        N    0.73580000  0.08700000  0.54300000  0.00000000
N        N    0.26420000  0.08700000  0.45700000  0.00000000
N        N    0.73580000  0.91300000  0.45700000  0.00000000
C        C    0.27100000  0.94201000  0.53781000  0.00000000
C        C    0.72900000  0.05799000  0.53781000  0.00000000
C        C    0.27100000  0.05799000  0.46219000  0.00000000
C        C    0.72900000  0.94201000  0.46219000  0.00000000
C        C    0.31670000  0.83799000  0.56950000  0.00000000
C        C    0.68330000  0.16201000  0.56950000  0.00000000
C        C    0.31670000  0.16201000  0.43050000  0.00000000
C        C    0.68330000  0.83799000  0.43050000  0.00000000
N        N    0.32321000  0.86730000  0.57291000  0.00000000
N        N    0.67679000  0.13270000  0.57291000  0.00000000
N        N    0.32321000  0.13270000  0.42709000  0.00000000
N        N    0.67679000  0.86730000  0.42709000  0.00000000
C        C    0.35219000  0.87260000  0.57539000  0.00000000
C        C    0.64781000  0.12740000  0.57539000  0.00000000
C        C    0.35219000  0.12740000  0.42461000  0.00000000
C        C    0.64781000  0.87260000  0.42461000  0.00000000
N        N    0.22341000  0.81180000  0.58379000  0.00000000
N        N    0.77659000  0.18820000  0.58379000  0.00000000
N        N    0.22341000  0.18820000  0.41621000  0.00000000
N        N    0.77659000  0.81180000  0.41621000  0.00000000
N        N    0.23480000  0.84591000  0.52490000  0.00000000
N        N    0.76520000  0.15409000  0.52490000  0.00000000
N        N    0.23480000  0.15409000  0.47510000  0.00000000
N        N    0.76520000  0.84591000  0.47510000  0.00000000
N        N    0.24910000  0.88061000  0.58430000  0.00000000
N        N    0.75090000  0.11939000  0.58430000  0.00000000
N        N    0.24910000  0.11939000  0.41570000  0.00000000
N        N    0.75090000  0.88061000  0.41570000  0.00000000
N        N    0.28941000  0.82480000  0.56569000  0.00000000
N        N    0.71059000  0.17520000  0.56569000  0.00000000
N        N    0.28941000  0.17520000  0.43431000  0.00000000
N        N    0.71059000  0.82480000  0.43431000  0.00000000
Zn       Zn   0.24949000  0.84171000  0.56561000  0.00000000
Zn       Zn   0.75051000  0.15829000  0.56561000  0.00000000
Zn       Zn   0.24949000  0.15829000  0.43439000  0.00000000
Zn       Zn   0.75051000  0.84171000  0.43439000  0.00000000
H        H    0.19900000  0.80100000  0.54880000  0.00000000
H        H    0.80100000  0.19900000  0.54880000  0.00000000
H        H    0.19900000  0.19900000  0.45120000  0.00000000
H        H    0.80100000  0.80100000  0.45120000  0.00000000
H        H    0.25380000  0.81950000  0.63530000  0.00000000
H        H    0.74620000  0.18050000  0.63530000  0.00000000
H        H    0.25380000  0.18050000  0.36470000  0.00000000
H        H    0.74620000  0.81950000  0.36470000  0.00000000
H        H    0.15130000  0.89420000  0.52369000  0.00000000
H        H    0.84870000  0.10580000  0.52369000  0.00000000
H        H    0.15130000  0.10580000  0.47631000  0.00000000
H        H    0.84870000  0.89420000  0.47631000  0.00000000
H        H    0.27599000  0.94759000  0.51830000  0.00000000
H        H    0.72401000  0.05241000  0.51830000  0.00000000
H        H    0.27599000  0.05241000  0.48170000  0.00000000
H        H    0.72401000  0.94759000  0.48170000  0.00000000
H        H    0.35839000  0.89251000  0.57730000  0.00000000
H        H    0.64161000  0.10749000  0.57730000  0.00000000
H        H    0.35839000  0.10749000  0.42270000  0.00000000
H        H    0.64161000  0.89251000  0.42270000  0.00000000
C        C    0.70291000  0.43111000  0.70290000  0.00000000
C        C    0.29709000  0.56889000  0.70290000  0.00000000
C        C    0.70291000  0.56889000  0.29710000  0.00000000
C        C    0.29709000  0.43111000  0.29710000  0.00000000
C        C    0.70119000  0.38919000  0.72291000  0.00000000
C        C    0.29881000  0.61081000  0.72291000  0.00000000
C        C    0.70119000  0.61081000  0.27709000  0.00000000
C        C    0.29881000  0.38919000  0.27709000  0.00000000
C        C    0.69541000  0.36520000  0.73921000  0.00000000
C        C    0.30459000  0.63480000  0.73921000  0.00000000
C        C    0.69541000  0.63480000  0.26079000  0.00000000
C        C    0.30459000  0.36520000  0.26079000  0.00000000
N        N    0.71250000  0.34191000  0.73281000  0.00000000
N        N    0.28750000  0.65809000  0.73281000  0.00000000
N        N    0.71250000  0.65809000  0.26719000  0.00000000
N        N    0.28750000  0.34191000  0.26719000  0.00000000
C        C    0.63940000  0.48490000  0.71051000  0.00000000
C        C    0.36060000  0.51510000  0.71051000  0.00000000
C        C    0.63940000  0.51510000  0.28949000  0.00000000
C        C    0.36060000  0.48490000  0.28949000  0.00000000
N        N    0.62660000  0.46900000  0.68900000  0.00000000
N        N    0.37340000  0.53100000  0.68900000  0.00000000
N        N    0.62660000  0.53100000  0.31100000  0.00000000
N        N    0.37340000  0.46900000  0.31100000  0.00000000
C        C    0.61479000  0.48600000  0.66749000  0.00000000
C        C    0.38521000  0.51400000  0.66749000  0.00000000
C        C    0.61479000  0.51400000  0.33251000  0.00000000
C        C    0.38521000  0.48600000  0.33251000  0.00000000
C        C    0.61270000  0.38730000  0.74541000  0.00000000
C        C    0.38730000  0.61270000  0.74541000  0.00000000
C        C    0.61270000  0.61270000  0.25459000  0.00000000
C        C    0.38730000  0.38730000  0.25459000  0.00000000
C        C    0.59280000  0.42849000  0.75640000  0.00000000
C        C    0.40720000  0.57151000  0.75640000  0.00000000
C        C    0.59280000  0.57151000  0.24360000  0.00000000
C        C    0.40720000  0.42849000  0.24360000  0.00000000
C        C    0.58699000  0.45699000  0.76421000  0.00000000
C        C    0.41301000  0.54301000  0.76421000  0.00000000
C        C    0.58699000  0.54301000  0.23579000  0.00000000
C        C    0.41301000  0.45699000  0.23579000  0.00000000
N        N    0.55801000  0.46220000  0.77100000  0.00000000
N        N    0.44199000  0.53780000  0.77100000  0.00000000
N        N    0.55801000  0.53780000  0.22900000  0.00000000
N        N    0.44199000  0.46220000  0.22900000  0.00000000
C        C    0.66200000  0.43049000  0.81670000  0.00000000
C        C    0.33800000  0.56951000  0.81670000  0.00000000
C        C    0.66200000  0.56951000  0.18330000  0.00000000
C        C    0.33800000  0.43049000  0.18330000  0.00000000
N        N    0.63269000  0.42710000  0.82319000  0.00000000
N        N    0.36731000  0.57290000  0.82319000  0.00000000
N        N    0.63269000  0.57290000  0.17681000  0.00000000
N        N    0.36731000  0.42710000  0.17681000  0.00000000
C        C    0.62739000  0.42460000  0.85220000  0.00000000
C        C    0.37261000  0.57540000  0.85220000  0.00000000
C        C    0.62739000  0.57540000  0.14780000  0.00000000
C        C    0.37261000  0.42460000  0.14780000  0.00000000
N        N    0.68820000  0.41620000  0.72339000  0.00000000
N        N    0.31180000  0.58380000  0.72339000  0.00000000
N        N    0.68820000  0.58380000  0.27661000  0.00000000
N        N    0.31180000  0.41620000  0.27661000  0.00000000
N        N    0.65411000  0.47509000  0.73481000  0.00000000
N        N    0.34589000  0.52491000  0.73481000  0.00000000
N        N    0.65411000  0.52491000  0.26519000  0.00000000
N        N    0.34589000  0.47509000  0.26519000  0.00000000
N        N    0.61941000  0.41569000  0.74910000  0.00000000
N        N    0.38059000  0.58431000  0.74910000  0.00000000
N        N    0.61941000  0.58431000  0.25090000  0.00000000
N        N    0.38059000  0.41569000  0.25090000  0.00000000
N        N    0.67520000  0.43430000  0.78939000  0.00000000
N        N    0.32480000  0.56570000  0.78939000  0.00000000
N        N    0.67520000  0.56570000  0.21061000  0.00000000
N        N    0.32480000  0.43430000  0.21061000  0.00000000
Zn       Zn   0.65831000  0.43441000  0.74950000  0.00000000
Zn       Zn   0.34169000  0.56559000  0.74950000  0.00000000
Zn       Zn   0.65831000  0.56559000  0.25050000  0.00000000
Zn       Zn   0.34169000  0.43441000  0.25050000  0.00000000
H        H    0.69899000  0.45121000  0.69900000  0.00000000
H        H    0.30101000  0.54879000  0.69900000  0.00000000
H        H    0.69899000  0.54879000  0.30100000  0.00000000
H        H    0.30101000  0.45121000  0.30100000  0.00000000
H        H    0.68050000  0.36469000  0.75381000  0.00000000
H        H    0.31950000  0.63531000  0.75381000  0.00000000
H        H    0.68050000  0.63531000  0.24619000  0.00000000
H        H    0.31950000  0.36469000  0.24619000  0.00000000
H        H    0.60579000  0.47630000  0.65131000  0.00000000
H        H    0.39421000  0.52370000  0.65131000  0.00000000
H        H    0.60579000  0.52370000  0.34869000  0.00000000
H        H    0.39421000  0.47630000  0.34869000  0.00000000
H        H    0.62710000  0.37290000  0.74059000  0.00000000
H        H    0.37290000  0.62710000  0.74059000  0.00000000
H        H    0.62710000  0.62710000  0.25941000  0.00000000
H        H    0.37290000  0.37290000  0.25941000  0.00000000
H        H    0.60170000  0.47179000  0.76480000  0.00000000
H        H    0.39830000  0.52821000  0.76480000  0.00000000
H        H    0.60170000  0.52821000  0.23520000  0.00000000
H        H    0.39830000  0.47179000  0.23520000  0.00000000
H        H    0.60751000  0.42271000  0.85840000  0.00000000
H        H    0.39249000  0.57729000  0.85840000  0.00000000
H        H    0.60751000  0.57729000  0.14160000  0.00000000
H        H    0.39249000  0.42271000  0.14160000  0.00000000
C        C    0.11079000  0.27710000  0.20121000  0.00000000
C        C    0.88921000  0.72290000  0.20121000  0.00000000
C        C    0.11079000  0.72290000  0.79879000  0.00000000
C        C    0.88921000  0.27710000  0.79879000  0.00000000
N        N    0.13481000  0.26081000  0.19540000  0.00000000
N        N    0.86519000  0.73919000  0.19540000  0.00000000
N        N    0.13481000  0.73919000  0.80460000  0.00000000
N        N    0.86519000  0.26081000  0.80460000  0.00000000
C        C    0.15810000  0.26721000  0.21249000  0.00000000
C        C    0.84190000  0.73279000  0.21249000  0.00000000
C        C    0.15810000  0.73279000  0.78751000  0.00000000
C        C    0.84190000  0.26721000  0.78751000  0.00000000
C        C    0.01511000  0.28950000  0.13939000  0.00000000
C        C    0.98489000  0.71050000  0.13939000  0.00000000
C        C    0.01511000  0.71050000  0.86061000  0.00000000
C        C    0.98489000  0.28950000  0.86061000  0.00000000
N        N    0.03101000  0.31099000  0.12659000  0.00000000
N        N    0.96899000  0.68901000  0.12659000  0.00000000
N        N    0.03101000  0.68901000  0.87341000  0.00000000
N        N    0.96899000  0.31099000  0.87341000  0.00000000
C        C    0.01401000  0.33250000  0.11481000  0.00000000
C        C    0.98599000  0.66750000  0.11481000  0.00000000
C        C    0.01401000  0.66750000  0.88519000  0.00000000
C        C    0.98599000  0.33250000  0.88519000  0.00000000
C        C    0.11271000  0.25460000  0.11269000  0.00000000
C        C    0.88729000  0.74540000  0.11269000  0.00000000
C        C    0.11271000  0.74540000  0.88731000  0.00000000
C        C    0.88729000  0.25460000  0.88731000  0.00000000
C        C    0.07149000  0.24361000  0.09279000  0.00000000
C        C    0.92851000  0.75639000  0.09279000  0.00000000
C        C    0.07149000  0.75639000  0.90721000  0.00000000
C        C    0.92851000  0.24361000  0.90721000  0.00000000
C        C    0.04299000  0.23580000  0.08701000  0.00000000
C        C    0.95701000  0.76420000  0.08701000  0.00000000
C        C    0.04299000  0.76420000  0.91299000  0.00000000
C        C    0.95701000  0.23580000  0.91299000  0.00000000
N        N    0.03780000  0.22901000  0.05800000  0.00000000
N        N    0.96220000  0.77099000  0.05800000  0.00000000
N        N    0.03780000  0.77099000  0.94200000  0.00000000
N        N    0.96220000  0.22901000  0.94200000  0.00000000
C        C    0.06949000  0.18331000  0.16200000  0.00000000
C        C    0.93051000  0.81669000  0.16200000  0.00000000
C        C    0.06949000  0.81669000  0.83800000  0.00000000
C        C    0.93051000  0.18331000  0.83800000  0.00000000
N        N    0.07290000  0.17680000  0.13271000  0.00000000
N        N    0.92710000  0.82320000  0.13271000  0.00000000
N        N    0.07290000  0.82320000  0.86729000  0.00000000
N        N    0.92710000  0.17680000  0.86729000  0.00000000
C        C    0.07541000  0.14779000  0.12741000  0.00000000
C        C    0.92459000  0.85221000  0.12741000  0.00000000
C        C    0.07541000  0.85221000  0.87259000  0.00000000
C        C    0.92459000  0.14779000  0.87259000  0.00000000
N        N    0.08381000  0.27660000  0.18819000  0.00000000
N        N    0.91619000  0.72340000  0.18819000  0.00000000
N        N    0.08381000  0.72340000  0.81181000  0.00000000
N        N    0.91619000  0.27660000  0.81181000  0.00000000
N        N    0.02489000  0.26520000  0.15410000  0.00000000
N        N    0.97511000  0.73480000  0.15410000  0.00000000
N        N    0.02489000  0.73480000  0.84590000  0.00000000
N        N    0.97511000  0.26520000  0.84590000  0.00000000
N        N    0.08429000  0.25091000  0.11940000  0.00000000
N        N    0.91571000  0.74909000  0.11940000  0.00000000
N        N    0.08429000  0.74909000  0.88060000  0.00000000
N        N    0.91571000  0.25091000  0.88060000  0.00000000
N        N    0.06571000  0.21060000  0.17519000  0.00000000
N        N    0.93429000  0.78940000  0.17519000  0.00000000
N        N    0.06571000  0.78940000  0.82481000  0.00000000
N        N    0.93429000  0.21060000  0.82481000  0.00000000
Zn       Zn   0.06560000  0.25049000  0.15830000  0.00000000
Zn       Zn   0.93440000  0.74951000  0.15830000  0.00000000
Zn       Zn   0.06560000  0.74951000  0.84170000  0.00000000
Zn       Zn   0.93440000  0.25049000  0.84170000  0.00000000
H        H    0.17560000  0.25630000  0.20970000  0.00000000
H        H    0.82440000  0.74370000  0.20970000  0.00000000
H        H    0.17560000  0.74370000  0.79030000  0.00000000
H        H    0.82440000  0.25630000  0.79030000  0.00000000
H        H    0.02371000  0.34871000  0.10579000  0.00000000
H        H    0.97629000  0.65129000  0.10579000  0.00000000
H        H    0.02371000  0.65129000  0.89421000  0.00000000
H        H    0.97629000  0.34871000  0.89421000  0.00000000
H        H    0.12711000  0.25940000  0.12710000  0.00000000
H        H    0.87289000  0.74060000  0.12710000  0.00000000
H        H    0.12711000  0.74060000  0.87290000  0.00000000
H        H    0.87289000  0.25940000  0.87290000  0.00000000
H        H    0.02819000  0.23521000  0.10170000  0.00000000
H        H    0.97181000  0.76479000  0.10170000  0.00000000
H        H    0.02819000  0.76479000  0.89830000  0.00000000
H        H    0.97181000  0.23521000  0.89830000  0.00000000
H        H    0.07730000  0.14159000  0.10750000  0.00000000
H        H    0.92270000  0.85841000  0.10750000  0.00000000
H        H    0.07730000  0.85841000  0.89250000  0.00000000
H        H    0.92270000  0.14159000  0.89250000  0.00000000
C        C    0.79879000  0.22289000  0.61080000  0.00000000
C        C    0.20121000  0.77711000  0.61080000  0.00000000
C        C    0.79879000  0.77711000  0.38920000  0.00000000
C        C    0.20121000  0.22289000  0.38920000  0.00000000
N        N    0.80460000  0.23921000  0.63479000  0.00000000
N        N    0.19540000  0.76079000  0.63479000  0.00000000
N        N    0.80460000  0.76079000  0.36521000  0.00000000
N        N    0.19540000  0.23921000  0.36521000  0.00000000
C        C    0.78751000  0.23279000  0.65810000  0.00000000
C        C    0.21249000  0.76721000  0.65810000  0.00000000
C        C    0.78751000  0.76721000  0.34190000  0.00000000
C        C    0.21249000  0.23279000  0.34190000  0.00000000
C        C    0.83789000  0.24840000  0.50001000  0.00000000
C        C    0.16211000  0.75160000  0.50001000  0.00000000
C        C    0.83789000  0.75160000  0.49999000  0.00000000
C        C    0.16211000  0.24840000  0.49999000  0.00000000
C        C    0.86061000  0.21049000  0.51509000  0.00000000
C        C    0.13939000  0.78951000  0.51509000  0.00000000
C        C    0.86061000  0.78951000  0.48491000  0.00000000
C        C    0.13939000  0.21049000  0.48491000  0.00000000
C        C    0.87341000  0.18900000  0.53099000  0.00000000
C        C    0.12659000  0.81100000  0.53099000  0.00000000
C        C    0.87341000  0.81100000  0.46901000  0.00000000
C        C    0.12659000  0.18900000  0.46901000  0.00000000
N        N    0.88519000  0.16750000  0.51399000  0.00000000
N        N    0.11481000  0.83250000  0.51399000  0.00000000
N        N    0.88519000  0.83250000  0.48601000  0.00000000
N        N    0.11481000  0.16750000  0.48601000  0.00000000
C        C    0.90721000  0.25641000  0.57150000  0.00000000
C        C    0.09279000  0.74359000  0.57150000  0.00000000
C        C    0.90721000  0.74359000  0.42850000  0.00000000
C        C    0.09279000  0.25641000  0.42850000  0.00000000
N        N    0.91299000  0.26419000  0.54300000  0.00000000
N        N    0.08701000  0.73581000  0.54300000  0.00000000
N        N    0.91299000  0.73581000  0.45700000  0.00000000
N        N    0.08701000  0.26419000  0.45700000  0.00000000
C        C    0.94200000  0.27101000  0.53781000  0.00000000
C        C    0.05800000  0.72899000  0.53781000  0.00000000
C        C    0.94200000  0.72899000  0.46219000  0.00000000
C        C    0.05800000  0.27101000  0.46219000  0.00000000
C        C    0.79620000  0.29619000  0.56400000  0.00000000
C        C    0.20380000  0.70381000  0.56400000  0.00000000
C        C    0.79620000  0.70381000  0.43600000  0.00000000
C        C    0.20380000  0.29619000  0.43600000  0.00000000
C        C    0.83800000  0.31671000  0.56950000  0.00000000
C        C    0.16200000  0.68329000  0.56950000  0.00000000
C        C    0.83800000  0.68329000  0.43050000  0.00000000
C        C    0.16200000  0.31671000  0.43050000  0.00000000
C        C    0.86729000  0.32320000  0.57291000  0.00000000
C        C    0.13271000  0.67680000  0.57291000  0.00000000
C        C    0.86729000  0.67680000  0.42709000  0.00000000
C        C    0.13271000  0.32320000  0.42709000  0.00000000
N        N    0.87259000  0.35220000  0.57539000  0.00000000
N        N    0.12741000  0.64780000  0.57539000  0.00000000
N        N    0.87259000  0.64780000  0.42461000  0.00000000
N        N    0.12741000  0.35220000  0.42461000  0.00000000
N        N    0.81181000  0.22340000  0.58379000  0.00000000
N        N    0.18819000  0.77660000  0.58379000  0.00000000
N        N    0.81181000  0.77660000  0.41621000  0.00000000
N        N    0.18819000  0.22340000  0.41621000  0.00000000
N        N    0.84590000  0.23479000  0.52490000  0.00000000
N        N    0.15410000  0.76521000  0.52490000  0.00000000
N        N    0.84590000  0.76521000  0.47510000  0.00000000
N        N    0.15410000  0.23479000  0.47510000  0.00000000
N        N    0.88060000  0.24911000  0.58430000  0.00000000
N        N    0.11940000  0.75089000  0.58430000  0.00000000
N        N    0.88060000  0.75089000  0.41570000  0.00000000
N        N    0.11940000  0.24911000  0.41570000  0.00000000
N        N    0.82481000  0.28939000  0.56569000  0.00000000
N        N    0.17519000  0.71061000  0.56569000  0.00000000
N        N    0.82481000  0.71061000  0.43431000  0.00000000
N        N    0.17519000  0.28939000  0.43431000  0.00000000
Zn       Zn   0.84170000  0.24950000  0.56561000  0.00000000
Zn       Zn   0.15830000  0.75050000  0.56561000  0.00000000
Zn       Zn   0.84170000  0.75050000  0.43439000  0.00000000
Zn       Zn   0.15830000  0.24950000  0.43439000  0.00000000
H        H    0.79030000  0.24370000  0.67561000  0.00000000
H        H    0.20970000  0.75630000  0.67561000  0.00000000
H        H    0.79030000  0.75630000  0.32439000  0.00000000
H        H    0.20970000  0.24370000  0.32439000  0.00000000
H        H    0.82720000  0.26630000  0.50001000  0.00000000
H        H    0.17280000  0.73370000  0.50001000  0.00000000
H        H    0.82720000  0.73370000  0.49999000  0.00000000
H        H    0.17280000  0.26630000  0.49999000  0.00000000
H        H    0.87400000  0.18889000  0.55180000  0.00000000
H        H    0.12600000  0.81111000  0.55180000  0.00000000
H        H    0.87400000  0.81111000  0.44820000  0.00000000
H        H    0.12600000  0.18889000  0.44820000  0.00000000
H        H    0.94761000  0.27600000  0.51830000  0.00000000
H        H    0.05239000  0.72400000  0.51830000  0.00000000
H        H    0.94761000  0.72400000  0.48170000  0.00000000
H        H    0.05239000  0.27600000  0.48170000  0.00000000
H        H    0.78151000  0.28150000  0.56160000  0.00000000
H        H    0.21849000  0.71850000  0.56160000  0.00000000
H        H    0.78151000  0.71850000  0.43840000  0.00000000
H        H    0.21849000  0.28150000  0.43840000  0.00000000
H        H    0.88229000  0.30870000  0.57350000  0.00000000
H        H    0.11771000  0.69130000  0.57350000  0.00000000
H        H    0.88229000  0.69130000  0.42650000  0.00000000
H        H    0.11771000  0.30870000  0.42650000  0.00000000
C        C    0.43110000  0.70290000  0.70290000  0.00000000
C        C    0.56890000  0.29710000  0.70290000  0.00000000
C        C    0.43110000  0.29710000  0.29710000  0.00000000
C        C    0.56890000  0.70290000  0.29710000  0.00000000
C        C    0.38920000  0.70120000  0.72291000  0.00000000
C        C    0.61080000  0.29880000  0.72291000  0.00000000
C        C    0.38920000  0.29880000  0.27709000  0.00000000
C        C    0.61080000  0.70120000  0.27709000  0.00000000
C        C    0.36521000  0.69540000  0.73921000  0.00000000
C        C    0.63479000  0.30460000  0.73921000  0.00000000
C        C    0.36521000  0.30460000  0.26079000  0.00000000
C        C    0.63479000  0.69540000  0.26079000  0.00000000
N        N    0.34190000  0.71251000  0.73281000  0.00000000
N        N    0.65810000  0.28749000  0.73281000  0.00000000
N        N    0.34190000  0.28749000  0.26719000  0.00000000
N        N    0.65810000  0.71251000  0.26719000  0.00000000
C        C    0.49999000  0.66210000  0.74840000  0.00000000
C        C    0.50001000  0.33790000  0.74840000  0.00000000
C        C    0.49999000  0.33790000  0.25160000  0.00000000
C        C    0.50001000  0.66210000  0.25160000  0.00000000
C        C    0.48491000  0.63941000  0.71051000  0.00000000
C        C    0.51509000  0.36059000  0.71051000  0.00000000
C        C    0.48491000  0.36059000  0.28949000  0.00000000
C        C    0.51509000  0.63941000  0.28949000  0.00000000
C        C    0.46901000  0.62661000  0.68900000  0.00000000
C        C    0.53099000  0.37339000  0.68900000  0.00000000
C        C    0.46901000  0.37339000  0.31100000  0.00000000
C        C    0.53099000  0.62661000  0.31100000  0.00000000
N        N    0.48601000  0.61480000  0.66749000  0.00000000
N        N    0.51399000  0.38520000  0.66749000  0.00000000
N        N    0.48601000  0.38520000  0.33251000  0.00000000
N        N    0.51399000  0.61480000  0.33251000  0.00000000
C        C    0.42850000  0.59281000  0.75640000  0.00000000
C        C    0.57150000  0.40719000  0.75640000  0.00000000
C        C    0.42850000  0.40719000  0.24360000  0.00000000
C        C    0.57150000  0.59281000  0.24360000  0.00000000
N        N    0.45700000  0.58700000  0.76421000  0.00000000
N        N    0.54300000  0.41300000  0.76421000  0.00000000
N        N    0.45700000  0.41300000  0.23579000  0.00000000
N        N    0.54300000  0.58700000  0.23579000  0.00000000
C        C    0.46219000  0.55800000  0.77100000  0.00000000
C        C    0.53781000  0.44200000  0.77100000  0.00000000
C        C    0.46219000  0.44200000  0.22900000  0.00000000
C        C    0.53781000  0.55800000  0.22900000  0.00000000
C        C    0.43600000  0.70380000  0.79621000  0.00000000
C        C    0.56400000  0.29620000  0.79621000  0.00000000
C        C    0.43600000  0.29620000  0.20379000  0.00000000
C        C    0.56400000  0.70380000  0.20379000  0.00000000
C        C    0.43050000  0.66199000  0.81670000  0.00000000
C        C    0.56950000  0.33801000  0.81670000  0.00000000
C        C    0.43050000  0.33801000  0.18330000  0.00000000
C        C    0.56950000  0.66199000  0.18330000  0.00000000
C        C    0.42709000  0.63270000  0.82319000  0.00000000
C        C    0.57291000  0.36730000  0.82319000  0.00000000
C        C    0.42709000  0.36730000  0.17681000  0.00000000
C        C    0.57291000  0.63270000  0.17681000  0.00000000
N        N    0.42461000  0.62740000  0.85220000  0.00000000
N        N    0.57539000  0.37260000  0.85220000  0.00000000
N        N    0.42461000  0.37260000  0.14780000  0.00000000
N        N    0.57539000  0.62740000  0.14780000  0.00000000
N        N    0.41621000  0.68821000  0.72339000  0.00000000
N        N    0.58379000  0.31179000  0.72339000  0.00000000
N        N    0.41621000  0.31179000  0.27661000  0.00000000
N        N    0.58379000  0.68821000  0.27661000  0.00000000
N        N    0.47510000  0.65410000  0.73481000  0.00000000
N        N    0.52490000  0.34590000  0.73481000  0.00000000
N        N    0.47510000  0.34590000  0.26519000  0.00000000
N        N    0.52490000  0.65410000  0.26519000  0.00000000
N        N    0.41570000  0.61940000  0.74910000  0.00000000
N        N    0.58430000  0.38060000  0.74910000  0.00000000
N        N    0.41570000  0.38060000  0.25090000  0.00000000
N        N    0.58430000  0.61940000  0.25090000  0.00000000
N        N    0.43431000  0.67521000  0.78939000  0.00000000
N        N    0.56569000  0.32479000  0.78939000  0.00000000
N        N    0.43431000  0.32479000  0.21061000  0.00000000
N        N    0.56569000  0.67521000  0.21061000  0.00000000
Zn       Zn   0.43439000  0.65830000  0.74950000  0.00000000
Zn       Zn   0.56561000  0.34170000  0.74950000  0.00000000
Zn       Zn   0.43439000  0.34170000  0.25050000  0.00000000
Zn       Zn   0.56561000  0.65830000  0.25050000  0.00000000
H        H    0.45120000  0.69900000  0.69900000  0.00000000
H        H    0.54880000  0.30100000  0.69900000  0.00000000
H        H    0.45120000  0.30100000  0.30100000  0.00000000
H        H    0.54880000  0.69900000  0.30100000  0.00000000
H        H    0.36470000  0.68051000  0.75381000  0.00000000
H        H    0.63530000  0.31949000  0.75381000  0.00000000
H        H    0.36470000  0.31949000  0.24619000  0.00000000
H        H    0.63530000  0.68051000  0.24619000  0.00000000
H        H    0.49999000  0.67279000  0.76630000  0.00000000
H        H    0.50001000  0.32721000  0.76630000  0.00000000
H        H    0.49999000  0.32721000  0.23370000  0.00000000
H        H    0.50001000  0.67279000  0.23370000  0.00000000
H        H    0.44820000  0.62599000  0.68891000  0.00000000
H        H    0.55180000  0.37401000  0.68891000  0.00000000
H        H    0.44820000  0.37401000  0.31109000  0.00000000
H        H    0.55180000  0.62599000  0.31109000  0.00000000
H        H    0.48170000  0.55241000  0.77600000  0.00000000
H        H    0.51830000  0.44759000  0.77600000  0.00000000
H        H    0.48170000  0.44759000  0.22400000  0.00000000
H        H    0.51830000  0.55241000  0.22400000  0.00000000
H        H    0.43840000  0.71849000  0.78149000  0.00000000
H        H    0.56160000  0.28151000  0.78149000  0.00000000
H        H    0.43840000  0.28151000  0.21851000  0.00000000
H        H    0.56160000  0.71849000  0.21851000  0.00000000
H        H    0.42650000  0.61770000  0.80870000  0.00000000
H        H    0.57350000  0.38230000  0.80870000  0.00000000
H        H    0.42650000  0.38230000  0.19130000  0.00000000
H        H    0.57350000  0.61770000  0.19130000  0.00000000
C        C    0.25160000  0.00000000  0.83790000  0.00000000
C        C    0.74840000  0.00000000  0.16210000  0.00000000
H        H    0.23370000  0.00000000  0.82719000  0.00000000
H        H    0.76630000  0.00000000  0.17281000  0.00000000
C        C    0.27709000  0.11080000  0.20121000  0.00000000
C        C    0.72291000  0.88920000  0.20121000  0.00000000
C        C    0.27709000  0.88920000  0.79879000  0.00000000
C        C    0.72291000  0.11080000  0.79879000  0.00000000
N        N    0.26079000  0.13480000  0.19540000  0.00000000
N        N    0.73921000  0.86520000  0.19540000  0.00000000
N        N    0.26079000  0.86520000  0.80460000  0.00000000
N        N    0.73921000  0.13480000  0.80460000  0.00000000
C        C    0.26719000  0.15811000  0.21249000  0.00000000
C        C    0.73281000  0.84189000  0.21249000  0.00000000
C        C    0.26719000  0.84189000  0.78751000  0.00000000
C        C    0.73281000  0.15811000  0.78751000  0.00000000
C        C    0.25160000  0.00000000  0.16211000  0.00000000
C        C    0.74840000  0.00000000  0.83789000  0.00000000
C        C    0.28949000  0.01510000  0.13939000  0.00000000
C        C    0.71051000  0.98490000  0.13939000  0.00000000
C        C    0.28949000  0.98490000  0.86061000  0.00000000
C        C    0.71051000  0.01510000  0.86061000  0.00000000
C        C    0.31100000  0.03100000  0.12659000  0.00000000
C        C    0.68900000  0.96900000  0.12659000  0.00000000
C        C    0.31100000  0.96900000  0.87341000  0.00000000
C        C    0.68900000  0.03100000  0.87341000  0.00000000
N        N    0.33251000  0.01400000  0.11481000  0.00000000
N        N    0.66749000  0.98600000  0.11481000  0.00000000
N        N    0.33251000  0.98600000  0.88519000  0.00000000
N        N    0.66749000  0.01400000  0.88519000  0.00000000
C        C    0.25459000  0.11269000  0.11269000  0.00000000
C        C    0.74541000  0.88731000  0.11269000  0.00000000
C        C    0.25459000  0.88731000  0.88731000  0.00000000
C        C    0.74541000  0.11269000  0.88731000  0.00000000
C        C    0.24360000  0.07150000  0.09279000  0.00000000
C        C    0.75640000  0.92850000  0.09279000  0.00000000
C        C    0.24360000  0.92850000  0.90721000  0.00000000
C        C    0.75640000  0.07150000  0.90721000  0.00000000
C        C    0.23579000  0.04300000  0.08701000  0.00000000
C        C    0.76421000  0.95700000  0.08701000  0.00000000
C        C    0.23579000  0.95700000  0.91299000  0.00000000
C        C    0.76421000  0.04300000  0.91299000  0.00000000
N        N    0.22900000  0.03779000  0.05800000  0.00000000
N        N    0.77100000  0.96221000  0.05800000  0.00000000
N        N    0.22900000  0.96221000  0.94200000  0.00000000
N        N    0.77100000  0.03779000  0.94200000  0.00000000
C        C    0.20379000  0.06401000  0.20380000  0.00000000
C        C    0.79621000  0.93599000  0.20380000  0.00000000
C        C    0.20379000  0.93599000  0.79620000  0.00000000
C        C    0.79621000  0.06401000  0.79620000  0.00000000
C        C    0.18330000  0.06950000  0.16200000  0.00000000
C        C    0.81670000  0.93050000  0.16200000  0.00000000
C        C    0.18330000  0.93050000  0.83800000  0.00000000
C        C    0.81670000  0.06950000  0.83800000  0.00000000
C        C    0.17681000  0.07289000  0.13271000  0.00000000
C        C    0.82319000  0.92711000  0.13271000  0.00000000
C        C    0.17681000  0.92711000  0.86729000  0.00000000
C        C    0.82319000  0.07289000  0.86729000  0.00000000
N        N    0.14780000  0.07540000  0.12741000  0.00000000
N        N    0.85220000  0.92460000  0.12741000  0.00000000
N        N    0.14780000  0.92460000  0.87259000  0.00000000
N        N    0.85220000  0.07540000  0.87259000  0.00000000
N        N    0.27661000  0.08380000  0.18819000  0.00000000
N        N    0.72339000  0.91620000  0.18819000  0.00000000
N        N    0.27661000  0.91620000  0.81181000  0.00000000
N        N    0.72339000  0.08380000  0.81181000  0.00000000
N        N    0.26519000  0.02491000  0.15410000  0.00000000
N        N    0.73481000  0.97509000  0.15410000  0.00000000
N        N    0.26519000  0.97509000  0.84590000  0.00000000
N        N    0.73481000  0.02491000  0.84590000  0.00000000
N        N    0.25090000  0.08430000  0.11940000  0.00000000
N        N    0.74910000  0.91570000  0.11940000  0.00000000
N        N    0.25090000  0.91570000  0.88060000  0.00000000
N        N    0.74910000  0.08430000  0.88060000  0.00000000
N        N    0.21061000  0.06570000  0.17519000  0.00000000
N        N    0.78939000  0.93430000  0.17519000  0.00000000
N        N    0.21061000  0.93430000  0.82481000  0.00000000
N        N    0.78939000  0.06570000  0.82481000  0.00000000
Zn       Zn   0.25050000  0.06559000  0.15830000  0.00000000
Zn       Zn   0.74950000  0.93441000  0.15830000  0.00000000
Zn       Zn   0.25050000  0.93441000  0.84170000  0.00000000
Zn       Zn   0.74950000  0.06559000  0.84170000  0.00000000
H        H    0.25631000  0.17559000  0.20970000  0.00000000
H        H    0.74369000  0.82441000  0.20970000  0.00000000
H        H    0.25631000  0.82441000  0.79030000  0.00000000
H        H    0.74369000  0.17559000  0.79030000  0.00000000
H        H    0.23370000  0.00000000  0.17280000  0.00000000
H        H    0.76630000  0.00000000  0.82720000  0.00000000
H        H    0.31109000  0.05180000  0.12600000  0.00000000
H        H    0.68891000  0.94820000  0.12600000  0.00000000
H        H    0.31109000  0.94820000  0.87400000  0.00000000
H        H    0.68891000  0.05180000  0.87400000  0.00000000
H        H    0.25941000  0.12710000  0.12710000  0.00000000
H        H    0.74059000  0.87290000  0.12710000  0.00000000
H        H    0.25941000  0.87290000  0.87290000  0.00000000
H        H    0.74059000  0.12710000  0.87290000  0.00000000
H        H    0.23520000  0.02820000  0.10170000  0.00000000
H        H    0.76480000  0.97180000  0.10170000  0.00000000
H        H    0.23520000  0.97180000  0.89830000  0.00000000
H        H    0.76480000  0.02820000  0.89830000  0.00000000
H        H    0.21851000  0.06161000  0.21849000  0.00000000
H        H    0.78149000  0.93839000  0.21849000  0.00000000
H        H    0.21851000  0.93839000  0.78151000  0.00000000
H        H    0.78149000  0.06161000  0.78151000  0.00000000
H        H    0.19130000  0.07351000  0.11771000  0.00000000
H        H    0.80870000  0.92649000  0.11771000  0.00000000
H        H    0.19130000  0.92649000  0.88229000  0.00000000
H        H    0.80870000  0.07351000  0.88229000  0.00000000
C        C    0.27709000  0.70120000  0.38919000  0.00000000
C        C    0.72291000  0.29880000  0.38919000  0.00000000
C        C    0.27709000  0.29880000  0.61081000  0.00000000
C        C    0.72291000  0.70120000  0.61081000  0.00000000
N        N    0.26079000  0.69540000  0.36520000  0.00000000
N        N    0.73921000  0.30460000  0.36520000  0.00000000
N        N    0.26079000  0.30460000  0.63480000  0.00000000
N        N    0.73921000  0.69540000  0.63480000  0.00000000
C        C    0.26719000  0.71251000  0.34191000  0.00000000
C        C    0.73281000  0.28749000  0.34191000  0.00000000
C        C    0.26719000  0.28749000  0.65809000  0.00000000
C        C    0.73281000  0.71251000  0.65809000  0.00000000
C        C    0.25160000  0.66210000  0.50001000  0.00000000
C        C    0.74840000  0.33790000  0.50001000  0.00000000
C        C    0.25160000  0.33790000  0.49999000  0.00000000
C        C    0.74840000  0.66210000  0.49999000  0.00000000
C        C    0.28949000  0.63941000  0.48490000  0.00000000
C        C    0.71051000  0.36059000  0.48490000  0.00000000
C        C    0.28949000  0.36059000  0.51510000  0.00000000
C        C    0.71051000  0.63941000  0.51510000  0.00000000
C        C    0.31100000  0.62661000  0.46900000  0.00000000
C        C    0.68900000  0.37339000  0.46900000  0.00000000
C        C    0.31100000  0.37339000  0.53100000  0.00000000
C        C    0.68900000  0.62661000  0.53100000  0.00000000
N        N    0.33251000  0.61480000  0.48600000  0.00000000
N        N    0.66749000  0.38520000  0.48600000  0.00000000
N        N    0.33251000  0.38520000  0.51400000  0.00000000
N        N    0.66749000  0.61480000  0.51400000  0.00000000
C        C    0.25459000  0.61271000  0.38730000  0.00000000
C        C    0.74541000  0.38729000  0.38730000  0.00000000
C        C    0.25459000  0.38729000  0.61270000  0.00000000
C        C    0.74541000  0.61271000  0.61270000  0.00000000
C        C    0.24360000  0.59281000  0.42849000  0.00000000
C        C    0.75640000  0.40719000  0.42849000  0.00000000
C        C    0.24360000  0.40719000  0.57151000  0.00000000
C        C    0.75640000  0.59281000  0.57151000  0.00000000
C        C    0.23579000  0.58700000  0.45699000  0.00000000
C        C    0.76421000  0.41300000  0.45699000  0.00000000
C        C    0.23579000  0.41300000  0.54301000  0.00000000
C        C    0.76421000  0.58700000  0.54301000  0.00000000
N        N    0.22900000  0.55800000  0.46220000  0.00000000
N        N    0.77100000  0.44200000  0.46220000  0.00000000
N        N    0.22900000  0.44200000  0.53780000  0.00000000
N        N    0.77100000  0.55800000  0.53780000  0.00000000
C        C    0.20379000  0.70380000  0.43601000  0.00000000
C        C    0.79621000  0.29620000  0.43601000  0.00000000
C        C    0.20379000  0.29620000  0.56399000  0.00000000
C        C    0.79621000  0.70380000  0.56399000  0.00000000
C        C    0.18330000  0.66199000  0.43049000  0.00000000
C        C    0.81670000  0.33801000  0.43049000  0.00000000
C        C    0.18330000  0.33801000  0.56951000  0.00000000
C        C    0.81670000  0.66199000  0.56951000  0.00000000
C        C    0.17681000  0.63270000  0.42710000  0.00000000
C        C    0.82319000  0.36730000  0.42710000  0.00000000
C        C    0.17681000  0.36730000  0.57290000  0.00000000
C        C    0.82319000  0.63270000  0.57290000  0.00000000
N        N    0.14780000  0.62740000  0.42460000  0.00000000
N        N    0.85220000  0.37260000  0.42460000  0.00000000
N        N    0.14780000  0.37260000  0.57540000  0.00000000
N        N    0.85220000  0.62740000  0.57540000  0.00000000
N        N    0.27661000  0.68821000  0.41620000  0.00000000
N        N    0.72339000  0.31179000  0.41620000  0.00000000
N        N    0.27661000  0.31179000  0.58380000  0.00000000
N        N    0.72339000  0.68821000  0.58380000  0.00000000
N        N    0.26519000  0.65410000  0.47509000  0.00000000
N        N    0.73481000  0.34590000  0.47509000  0.00000000
N        N    0.26519000  0.34590000  0.52491000  0.00000000
N        N    0.73481000  0.65410000  0.52491000  0.00000000
N        N    0.25090000  0.61940000  0.41569000  0.00000000
N        N    0.74910000  0.38060000  0.41569000  0.00000000
N        N    0.25090000  0.38060000  0.58431000  0.00000000
N        N    0.74910000  0.61940000  0.58431000  0.00000000
N        N    0.21061000  0.67521000  0.43430000  0.00000000
N        N    0.78939000  0.32479000  0.43430000  0.00000000
N        N    0.21061000  0.32479000  0.56570000  0.00000000
N        N    0.78939000  0.67521000  0.56570000  0.00000000
Zn       Zn   0.25050000  0.65830000  0.43441000  0.00000000
Zn       Zn   0.74950000  0.34170000  0.43441000  0.00000000
Zn       Zn   0.25050000  0.34170000  0.56559000  0.00000000
Zn       Zn   0.74950000  0.65830000  0.56559000  0.00000000
H        H    0.25631000  0.70969000  0.32440000  0.00000000
H        H    0.74369000  0.29031000  0.32440000  0.00000000
H        H    0.25631000  0.29031000  0.67560000  0.00000000
H        H    0.74369000  0.70969000  0.67560000  0.00000000
H        H    0.23370000  0.67279000  0.50001000  0.00000000
H        H    0.76630000  0.32721000  0.50001000  0.00000000
H        H    0.23370000  0.32721000  0.49999000  0.00000000
H        H    0.76630000  0.67279000  0.49999000  0.00000000
H        H    0.31109000  0.62599000  0.44819000  0.00000000
H        H    0.68891000  0.37401000  0.44819000  0.00000000
H        H    0.31109000  0.37401000  0.55181000  0.00000000
H        H    0.68891000  0.62599000  0.55181000  0.00000000
H        H    0.25941000  0.62709000  0.37290000  0.00000000
H        H    0.74059000  0.37291000  0.37290000  0.00000000
H        H    0.25941000  0.37291000  0.62710000  0.00000000
H        H    0.74059000  0.62709000  0.62710000  0.00000000
H        H    0.23520000  0.60169000  0.47179000  0.00000000
H        H    0.76480000  0.39831000  0.47179000  0.00000000
H        H    0.23520000  0.39831000  0.52821000  0.00000000
H        H    0.76480000  0.60169000  0.52821000  0.00000000
H        H    0.21851000  0.71849000  0.43841000  0.00000000
H        H    0.78149000  0.28151000  0.43841000  0.00000000
H        H    0.21851000  0.28151000  0.56159000  0.00000000
H        H    0.78149000  0.71849000  0.56159000  0.00000000
H        H    0.19130000  0.61770000  0.42651000  0.00000000
H        H    0.80870000  0.38230000  0.42651000  0.00000000
H        H    0.19130000  0.38230000  0.57349000  0.00000000
H        H    0.80870000  0.61770000  0.57349000  0.00000000
C        C    0.16210000  0.00000000  0.25159000  0.00000000
C        C    0.83790000  0.00000000  0.74841000  0.00000000
H        H    0.17281000  0.00000000  0.23369000  0.00000000
H        H    0.82719000  0.00000000  0.76631000  0.00000000
C        C    0.79879000  0.11080000  0.27710000  0.00000000
C        C    0.20121000  0.88920000  0.27710000  0.00000000
C        C    0.79879000  0.88920000  0.72290000  0.00000000
C        C    0.20121000  0.11080000  0.72290000  0.00000000
N        N    0.80460000  0.13480000  0.26081000  0.00000000
N        N    0.19540000  0.86520000  0.26081000  0.00000000
N        N    0.80460000  0.86520000  0.73919000  0.00000000
N        N    0.19540000  0.13480000  0.73919000  0.00000000
C        C    0.78751000  0.15811000  0.26721000  0.00000000
C        C    0.21249000  0.84189000  0.26721000  0.00000000
C        C    0.78751000  0.84189000  0.73279000  0.00000000
C        C    0.21249000  0.15811000  0.73279000  0.00000000
C        C    0.83789000  0.00000000  0.25159000  0.00000000
C        C    0.16211000  0.00000000  0.74841000  0.00000000
C        C    0.86061000  0.01510000  0.28950000  0.00000000
C        C    0.13939000  0.98490000  0.28950000  0.00000000
C        C    0.86061000  0.98490000  0.71050000  0.00000000
C        C    0.13939000  0.01510000  0.71050000  0.00000000
C        C    0.87341000  0.03100000  0.31099000  0.00000000
C        C    0.12659000  0.96900000  0.31099000  0.00000000
C        C    0.87341000  0.96900000  0.68901000  0.00000000
C        C    0.12659000  0.03100000  0.68901000  0.00000000
N        N    0.88519000  0.01400000  0.33250000  0.00000000
N        N    0.11481000  0.98600000  0.33250000  0.00000000
N        N    0.88519000  0.98600000  0.66750000  0.00000000
N        N    0.11481000  0.01400000  0.66750000  0.00000000
C        C    0.90721000  0.07150000  0.24361000  0.00000000
C        C    0.09279000  0.92850000  0.24361000  0.00000000
C        C    0.90721000  0.92850000  0.75639000  0.00000000
C        C    0.09279000  0.07150000  0.75639000  0.00000000
N        N    0.91299000  0.04300000  0.23580000  0.00000000
N        N    0.08701000  0.95700000  0.23580000  0.00000000
N        N    0.91299000  0.95700000  0.76420000  0.00000000
N        N    0.08701000  0.04300000  0.76420000  0.00000000
C        C    0.94200000  0.03779000  0.22901000  0.00000000
C        C    0.05800000  0.96221000  0.22901000  0.00000000
C        C    0.94200000  0.96221000  0.77099000  0.00000000
C        C    0.05800000  0.03779000  0.77099000  0.00000000
C        C    0.79620000  0.06401000  0.20380000  0.00000000
C        C    0.20380000  0.93599000  0.20380000  0.00000000
C        C    0.79620000  0.93599000  0.79620000  0.00000000
C        C    0.20380000  0.06401000  0.79620000  0.00000000
C        C    0.83800000  0.06950000  0.18331000  0.00000000
C        C    0.16200000  0.93050000  0.18331000  0.00000000
C        C    0.83800000  0.93050000  0.81669000  0.00000000
C        C    0.16200000  0.06950000  0.81669000  0.00000000
C        C    0.86729000  0.07289000  0.17680000  0.00000000
C        C    0.13271000  0.92711000  0.17680000  0.00000000
C        C    0.86729000  0.92711000  0.82320000  0.00000000
C        C    0.13271000  0.07289000  0.82320000  0.00000000
N        N    0.87259000  0.07540000  0.14779000  0.00000000
N        N    0.12741000  0.92460000  0.14779000  0.00000000
N        N    0.87259000  0.92460000  0.85221000  0.00000000
N        N    0.12741000  0.07540000  0.85221000  0.00000000
N        N    0.81181000  0.08380000  0.27660000  0.00000000
N        N    0.18819000  0.91620000  0.27660000  0.00000000
N        N    0.81181000  0.91620000  0.72340000  0.00000000
N        N    0.18819000  0.08380000  0.72340000  0.00000000
N        N    0.84590000  0.02491000  0.26520000  0.00000000
N        N    0.15410000  0.97509000  0.26520000  0.00000000
N        N    0.84590000  0.97509000  0.73480000  0.00000000
N        N    0.15410000  0.02491000  0.73480000  0.00000000
N        N    0.88060000  0.08430000  0.25091000  0.00000000
N        N    0.11940000  0.91570000  0.25091000  0.00000000
N        N    0.88060000  0.91570000  0.74909000  0.00000000
N        N    0.11940000  0.08430000  0.74909000  0.00000000
N        N    0.82481000  0.06570000  0.21060000  0.00000000
N        N    0.17519000  0.93430000  0.21060000  0.00000000
N        N    0.82481000  0.93430000  0.78940000  0.00000000
N        N    0.17519000  0.06570000  0.78940000  0.00000000
Zn       Zn   0.84170000  0.06559000  0.25049000  0.00000000
Zn       Zn   0.15830000  0.93441000  0.25049000  0.00000000
Zn       Zn   0.84170000  0.93441000  0.74951000  0.00000000
Zn       Zn   0.15830000  0.06559000  0.74951000  0.00000000
H        H    0.79030000  0.17559000  0.25630000  0.00000000
H        H    0.20970000  0.82441000  0.25630000  0.00000000
H        H    0.79030000  0.82441000  0.74370000  0.00000000
H        H    0.20970000  0.17559000  0.74370000  0.00000000
H        H    0.82720000  0.00000000  0.23369000  0.00000000
H        H    0.17280000  0.00000000  0.76631000  0.00000000
H        H    0.87400000  0.05180000  0.31110000  0.00000000
H        H    0.12600000  0.94820000  0.31110000  0.00000000
H        H    0.87400000  0.94820000  0.68890000  0.00000000
H        H    0.12600000  0.05180000  0.68890000  0.00000000
H        H    0.94761000  0.01831000  0.22399000  0.00000000
H        H    0.05239000  0.98169000  0.22399000  0.00000000
H        H    0.94761000  0.98169000  0.77601000  0.00000000
H        H    0.05239000  0.01831000  0.77601000  0.00000000
H        H    0.78151000  0.06161000  0.21849000  0.00000000
H        H    0.21849000  0.93839000  0.21849000  0.00000000
H        H    0.78151000  0.93839000  0.78151000  0.00000000
H        H    0.21849000  0.06161000  0.78151000  0.00000000
H        H    0.88229000  0.07351000  0.19129000  0.00000000
H        H    0.11771000  0.92649000  0.19129000  0.00000000
H        H    0.88229000  0.92649000  0.80871000  0.00000000
H        H    0.11771000  0.07351000  0.80871000  0.00000000
C        C    0.43110000  0.20290000  0.79711000  0.00000000
C        C    0.56890000  0.79710000  0.79711000  0.00000000
C        C    0.43110000  0.79710000  0.20289000  0.00000000
C        C    0.56890000  0.20290000  0.20289000  0.00000000
C        C    0.38920000  0.22289000  0.79880000  0.00000000
C        C    0.61080000  0.77711000  0.79880000  0.00000000
C        C    0.38920000  0.77711000  0.20120000  0.00000000
C        C    0.61080000  0.22289000  0.20120000  0.00000000
C        C    0.36521000  0.23921000  0.80461000  0.00000000
C        C    0.63479000  0.76079000  0.80461000  0.00000000
C        C    0.36521000  0.76079000  0.19539000  0.00000000
C        C    0.63479000  0.23921000  0.19539000  0.00000000
N        N    0.34190000  0.23279000  0.78750000  0.00000000
N        N    0.65810000  0.76721000  0.78750000  0.00000000
N        N    0.34190000  0.76721000  0.21250000  0.00000000
N        N    0.65810000  0.23279000  0.21250000  0.00000000
C        C    0.49999000  0.24840000  0.83790000  0.00000000
C        C    0.50001000  0.75160000  0.83790000  0.00000000
C        C    0.49999000  0.75160000  0.16210000  0.00000000
C        C    0.50001000  0.24840000  0.16210000  0.00000000
C        C    0.48491000  0.21049000  0.86060000  0.00000000
C        C    0.51509000  0.78951000  0.86060000  0.00000000
C        C    0.48491000  0.78951000  0.13940000  0.00000000
C        C    0.51509000  0.21049000  0.13940000  0.00000000
C        C    0.46901000  0.18900000  0.87340000  0.00000000
C        C    0.53099000  0.81100000  0.87340000  0.00000000
C        C    0.46901000  0.81100000  0.12660000  0.00000000
C        C    0.53099000  0.18900000  0.12660000  0.00000000
N        N    0.48601000  0.16750000  0.88521000  0.00000000
N        N    0.51399000  0.83250000  0.88521000  0.00000000
N        N    0.48601000  0.83250000  0.11479000  0.00000000
N        N    0.51399000  0.16750000  0.11479000  0.00000000
C        C    0.42850000  0.25641000  0.90720000  0.00000000
C        C    0.57150000  0.74359000  0.90720000  0.00000000
C        C    0.42850000  0.74359000  0.09280000  0.00000000
C        C    0.57150000  0.25641000  0.09280000  0.00000000
N        N    0.45700000  0.26419000  0.91300000  0.00000000
N        N    0.54300000  0.73581000  0.91300000  0.00000000
N        N    0.45700000  0.73581000  0.08700000  0.00000000
N        N    0.54300000  0.26419000  0.08700000  0.00000000
C        C    0.46219000  0.27101000  0.94201000  0.00000000
C        C    0.53781000  0.72899000  0.94201000  0.00000000
C        C    0.46219000  0.72899000  0.05799000  0.00000000
C        C    0.53781000  0.27101000  0.05799000  0.00000000
C        C    0.43600000  0.29619000  0.79621000  0.00000000
C        C    0.56400000  0.70381000  0.79621000  0.00000000
C        C    0.43600000  0.70381000  0.20379000  0.00000000
C        C    0.56400000  0.29619000  0.20379000  0.00000000
C        C    0.43050000  0.31671000  0.83799000  0.00000000
C        C    0.56950000  0.68329000  0.83799000  0.00000000
C        C    0.43050000  0.68329000  0.16201000  0.00000000
C        C    0.56950000  0.31671000  0.16201000  0.00000000
C        C    0.42709000  0.32320000  0.86730000  0.00000000
C        C    0.57291000  0.67680000  0.86730000  0.00000000
C        C    0.42709000  0.67680000  0.13270000  0.00000000
C        C    0.57291000  0.32320000  0.13270000  0.00000000
N        N    0.42461000  0.35220000  0.87260000  0.00000000
N        N    0.57539000  0.64780000  0.87260000  0.00000000
N        N    0.42461000  0.64780000  0.12740000  0.00000000
N        N    0.57539000  0.35220000  0.12740000  0.00000000
N        N    0.41621000  0.22340000  0.81180000  0.00000000
N        N    0.58379000  0.77660000  0.81180000  0.00000000
N        N    0.41621000  0.77660000  0.18820000  0.00000000
N        N    0.58379000  0.22340000  0.18820000  0.00000000
N        N    0.47510000  0.23479000  0.84591000  0.00000000
N        N    0.52490000  0.76521000  0.84591000  0.00000000
N        N    0.47510000  0.76521000  0.15409000  0.00000000
N        N    0.52490000  0.23479000  0.15409000  0.00000000
N        N    0.41570000  0.24911000  0.88061000  0.00000000
N        N    0.58430000  0.75089000  0.88061000  0.00000000
N        N    0.41570000  0.75089000  0.11939000  0.00000000
N        N    0.58430000  0.24911000  0.11939000  0.00000000
N        N    0.43431000  0.28939000  0.82480000  0.00000000
N        N    0.56569000  0.71061000  0.82480000  0.00000000
N        N    0.43431000  0.71061000  0.17520000  0.00000000
N        N    0.56569000  0.28939000  0.17520000  0.00000000
Zn       Zn   0.43439000  0.24950000  0.84171000  0.00000000
Zn       Zn   0.56561000  0.75050000  0.84171000  0.00000000
Zn       Zn   0.43439000  0.75050000  0.15829000  0.00000000
Zn       Zn   0.56561000  0.24950000  0.15829000  0.00000000
H        H    0.45120000  0.19901000  0.80100000  0.00000000
H        H    0.54880000  0.80099000  0.80100000  0.00000000
H        H    0.45120000  0.80099000  0.19900000  0.00000000
H        H    0.54880000  0.19901000  0.19900000  0.00000000
H        H    0.36470000  0.25379000  0.81950000  0.00000000
H        H    0.63530000  0.74621000  0.81950000  0.00000000
H        H    0.36470000  0.74621000  0.18050000  0.00000000
H        H    0.63530000  0.25379000  0.18050000  0.00000000
H        H    0.49999000  0.26630000  0.82719000  0.00000000
H        H    0.50001000  0.73370000  0.82719000  0.00000000
H        H    0.49999000  0.73370000  0.17281000  0.00000000
H        H    0.50001000  0.26630000  0.17281000  0.00000000
H        H    0.44820000  0.18889000  0.87399000  0.00000000
H        H    0.55180000  0.81111000  0.87399000  0.00000000
H        H    0.44820000  0.81111000  0.12601000  0.00000000
H        H    0.55180000  0.18889000  0.12601000  0.00000000
H        H    0.48170000  0.27600000  0.94759000  0.00000000
H        H    0.51830000  0.72400000  0.94759000  0.00000000
H        H    0.48170000  0.72400000  0.05241000  0.00000000
H        H    0.51830000  0.27600000  0.05241000  0.00000000
H        H    0.43840000  0.28150000  0.78149000  0.00000000
H        H    0.56160000  0.71850000  0.78149000  0.00000000
H        H    0.43840000  0.71850000  0.21851000  0.00000000
H        H    0.56160000  0.28150000  0.21851000  0.00000000
H        H    0.42650000  0.30870000  0.88230000  0.00000000
H        H    0.57350000  0.69130000  0.88230000  0.00000000
H        H    0.42650000  0.69130000  0.11770000  0.00000000
H        H    0.57350000  0.30870000  0.11770000  0.00000000
C        C    0.20120000  0.77710000  0.38919000  0.00000000
C        C    0.79880000  0.22290000  0.38919000  0.00000000
C        C    0.20120000  0.22290000  0.61081000  0.00000000
C        C    0.79880000  0.77710000  0.61081000  0.00000000
N        N    0.19539000  0.76080000  0.36520000  0.00000000
N        N    0.80461000  0.23920000  0.36520000  0.00000000
N        N    0.19539000  0.23920000  0.63480000  0.00000000
N        N    0.80461000  0.76080000  0.63480000  0.00000000
C        C    0.21250000  0.76720000  0.34191000  0.00000000
C        C    0.78750000  0.23280000  0.34191000  0.00000000
C        C    0.21250000  0.23280000  0.65809000  0.00000000
C        C    0.78750000  0.76720000  0.65809000  0.00000000
C        C    0.13940000  0.78950000  0.48490000  0.00000000
C        C    0.86060000  0.21050000  0.48490000  0.00000000
C        C    0.13940000  0.21050000  0.51510000  0.00000000
C        C    0.86060000  0.78950000  0.51510000  0.00000000
N        N    0.12660000  0.81101000  0.46900000  0.00000000
N        N    0.87340000  0.18899000  0.46900000  0.00000000
N        N    0.12660000  0.18899000  0.53100000  0.00000000
N        N    0.87340000  0.81101000  0.53100000  0.00000000
C        C    0.11479000  0.83249000  0.48600000  0.00000000
C        C    0.88521000  0.16751000  0.48600000  0.00000000
C        C    0.11479000  0.16751000  0.51400000  0.00000000
C        C    0.88521000  0.83249000  0.51400000  0.00000000
C        C    0.09280000  0.74360000  0.42849000  0.00000000
C        C    0.90720000  0.25640000  0.42849000  0.00000000
C        C    0.09280000  0.25640000  0.57151000  0.00000000
C        C    0.90720000  0.74360000  0.57151000  0.00000000
N        N    0.08700000  0.73580000  0.45699000  0.00000000
N        N    0.91300000  0.26420000  0.45699000  0.00000000
N        N    0.08700000  0.26420000  0.54301000  0.00000000
N        N    0.91300000  0.73580000  0.54301000  0.00000000
C        C    0.05799000  0.72900000  0.46220000  0.00000000
C        C    0.94201000  0.27100000  0.46220000  0.00000000
C        C    0.05799000  0.27100000  0.53780000  0.00000000
C        C    0.94201000  0.72900000  0.53780000  0.00000000
C        C    0.16201000  0.68330000  0.43049000  0.00000000
C        C    0.83799000  0.31670000  0.43049000  0.00000000
C        C    0.16201000  0.31670000  0.56951000  0.00000000
C        C    0.83799000  0.68330000  0.56951000  0.00000000
N        N    0.13270000  0.67679000  0.42710000  0.00000000
N        N    0.86730000  0.32321000  0.42710000  0.00000000
N        N    0.13270000  0.32321000  0.57290000  0.00000000
N        N    0.86730000  0.67679000  0.57290000  0.00000000
C        C    0.12740000  0.64781000  0.42460000  0.00000000
C        C    0.87260000  0.35219000  0.42460000  0.00000000
C        C    0.12740000  0.35219000  0.57540000  0.00000000
C        C    0.87260000  0.64781000  0.57540000  0.00000000
N        N    0.18820000  0.77659000  0.41620000  0.00000000
N        N    0.81180000  0.22341000  0.41620000  0.00000000
N        N    0.18820000  0.22341000  0.58380000  0.00000000
N        N    0.81180000  0.77659000  0.58380000  0.00000000
N        N    0.15409000  0.76520000  0.47509000  0.00000000
N        N    0.84591000  0.23480000  0.47509000  0.00000000
N        N    0.15409000  0.23480000  0.52491000  0.00000000
N        N    0.84591000  0.76520000  0.52491000  0.00000000
N        N    0.11939000  0.75090000  0.41569000  0.00000000
N        N    0.88061000  0.24910000  0.41569000  0.00000000
N        N    0.11939000  0.24910000  0.58431000  0.00000000
N        N    0.88061000  0.75090000  0.58431000  0.00000000
N        N    0.17520000  0.71059000  0.43430000  0.00000000
N        N    0.82480000  0.28941000  0.43430000  0.00000000
N        N    0.17520000  0.28941000  0.56570000  0.00000000
N        N    0.82480000  0.71059000  0.56570000  0.00000000
Zn       Zn   0.15829000  0.75051000  0.43441000  0.00000000
Zn       Zn   0.84171000  0.24949000  0.43441000  0.00000000
Zn       Zn   0.15829000  0.24949000  0.56559000  0.00000000
Zn       Zn   0.84171000  0.75051000  0.56559000  0.00000000
H        H    0.20971000  0.75629000  0.32440000  0.00000000
H        H    0.79029000  0.24371000  0.32440000  0.00000000
H        H    0.20971000  0.24371000  0.67560000  0.00000000
H        H    0.79029000  0.75629000  0.67560000  0.00000000
H        H    0.10580000  0.84870000  0.47630000  0.00000000
H        H    0.89420000  0.15130000  0.47630000  0.00000000
H        H    0.10580000  0.15130000  0.52370000  0.00000000
H        H    0.89420000  0.84870000  0.52370000  0.00000000
H        H    0.05241000  0.72401000  0.48171000  0.00000000
H        H    0.94759000  0.27599000  0.48171000  0.00000000
H        H    0.05241000  0.27599000  0.51829000  0.00000000
H        H    0.94759000  0.72401000  0.51829000  0.00000000
H        H    0.10749000  0.64161000  0.42271000  0.00000000
H        H    0.89251000  0.35839000  0.42271000  0.00000000
H        H    0.10749000  0.35839000  0.57729000  0.00000000
H        H    0.89251000  0.64161000  0.57729000  0.00000000
C        C    0.56889000  0.29709000  0.29709000  0.00000000
C        C    0.43111000  0.70291000  0.29709000  0.00000000
C        C    0.56889000  0.70291000  0.70291000  0.00000000
C        C    0.43111000  0.29709000  0.70291000  0.00000000
C        C    0.61081000  0.29881000  0.27710000  0.00000000
C        C    0.38919000  0.70119000  0.27710000  0.00000000
C        C    0.61081000  0.70119000  0.72290000  0.00000000
C        C    0.38919000  0.29881000  0.72290000  0.00000000
C        C    0.63480000  0.30459000  0.26081000  0.00000000
C        C    0.36520000  0.69541000  0.26081000  0.00000000
C        C    0.63480000  0.69541000  0.73919000  0.00000000
C        C    0.36520000  0.30459000  0.73919000  0.00000000
N        N    0.65809000  0.28750000  0.26721000  0.00000000
N        N    0.34191000  0.71250000  0.26721000  0.00000000
N        N    0.65809000  0.71250000  0.73279000  0.00000000
N        N    0.34191000  0.28750000  0.73279000  0.00000000
C        C    0.51510000  0.36060000  0.28950000  0.00000000
C        C    0.48490000  0.63940000  0.28950000  0.00000000
C        C    0.51510000  0.63940000  0.71050000  0.00000000
C        C    0.48490000  0.36060000  0.71050000  0.00000000
N        N    0.53100000  0.37340000  0.31099000  0.00000000
N        N    0.46900000  0.62660000  0.31099000  0.00000000
N        N    0.53100000  0.62660000  0.68901000  0.00000000
N        N    0.46900000  0.37340000  0.68901000  0.00000000
C        C    0.51400000  0.38521000  0.33250000  0.00000000
C        C    0.48600000  0.61479000  0.33250000  0.00000000
C        C    0.51400000  0.61479000  0.66750000  0.00000000
C        C    0.48600000  0.38521000  0.66750000  0.00000000
C        C    0.57151000  0.40720000  0.24361000  0.00000000
C        C    0.42849000  0.59280000  0.24361000  0.00000000
C        C    0.57151000  0.59280000  0.75639000  0.00000000
C        C    0.42849000  0.40720000  0.75639000  0.00000000
N        N    0.54301000  0.41301000  0.23580000  0.00000000
N        N    0.45699000  0.58699000  0.23580000  0.00000000
N        N    0.54301000  0.58699000  0.76420000  0.00000000
N        N    0.45699000  0.41301000  0.76420000  0.00000000
C        C    0.53780000  0.44199000  0.22901000  0.00000000
C        C    0.46220000  0.55801000  0.22901000  0.00000000
C        C    0.53780000  0.55801000  0.77099000  0.00000000
C        C    0.46220000  0.44199000  0.77099000  0.00000000
C        C    0.56951000  0.33800000  0.18331000  0.00000000
C        C    0.43049000  0.66200000  0.18331000  0.00000000
C        C    0.56951000  0.66200000  0.81669000  0.00000000
C        C    0.43049000  0.33800000  0.81669000  0.00000000
N        N    0.57290000  0.36731000  0.17680000  0.00000000
N        N    0.42710000  0.63269000  0.17680000  0.00000000
N        N    0.57290000  0.63269000  0.82320000  0.00000000
N        N    0.42710000  0.36731000  0.82320000  0.00000000
C        C    0.57540000  0.37261000  0.14779000  0.00000000
C        C    0.42460000  0.62739000  0.14779000  0.00000000
C        C    0.57540000  0.62739000  0.85221000  0.00000000
C        C    0.42460000  0.37261000  0.85221000  0.00000000
N        N    0.58380000  0.31180000  0.27660000  0.00000000
N        N    0.41620000  0.68820000  0.27660000  0.00000000
N        N    0.58380000  0.68820000  0.72340000  0.00000000
N        N    0.41620000  0.31180000  0.72340000  0.00000000
N        N    0.52491000  0.34589000  0.26520000  0.00000000
N        N    0.47509000  0.65411000  0.26520000  0.00000000
N        N    0.52491000  0.65411000  0.73480000  0.00000000
N        N    0.47509000  0.34589000  0.73480000  0.00000000
N        N    0.58431000  0.38059000  0.25091000  0.00000000
N        N    0.41569000  0.61941000  0.25091000  0.00000000
N        N    0.58431000  0.61941000  0.74909000  0.00000000
N        N    0.41569000  0.38059000  0.74909000  0.00000000
N        N    0.56570000  0.32480000  0.21060000  0.00000000
N        N    0.43430000  0.67520000  0.21060000  0.00000000
N        N    0.56570000  0.67520000  0.78940000  0.00000000
N        N    0.43430000  0.32480000  0.78940000  0.00000000
Zn       Zn   0.56559000  0.34169000  0.25049000  0.00000000
Zn       Zn   0.43441000  0.65831000  0.25049000  0.00000000
Zn       Zn   0.56559000  0.65831000  0.74951000  0.00000000
Zn       Zn   0.43441000  0.34169000  0.74951000  0.00000000
H        H    0.54879000  0.30101000  0.30101000  0.00000000
H        H    0.45121000  0.69899000  0.30101000  0.00000000
H        H    0.54879000  0.69899000  0.69899000  0.00000000
H        H    0.45121000  0.30101000  0.69899000  0.00000000
H        H    0.63531000  0.31950000  0.24620000  0.00000000
H        H    0.36469000  0.68050000  0.24620000  0.00000000
H        H    0.63531000  0.68050000  0.75380000  0.00000000
H        H    0.36469000  0.31950000  0.75380000  0.00000000
H        H    0.52370000  0.39421000  0.34871000  0.00000000
H        H    0.47630000  0.60579000  0.34871000  0.00000000
H        H    0.52370000  0.60579000  0.65129000  0.00000000
H        H    0.47630000  0.39421000  0.65129000  0.00000000
H        H    0.51829000  0.44760000  0.22399000  0.00000000
H        H    0.48171000  0.55240000  0.22399000  0.00000000
H        H    0.51829000  0.55240000  0.77601000  0.00000000
H        H    0.48171000  0.44760000  0.77601000  0.00000000
H        H    0.57729000  0.39249000  0.14159000  0.00000000
H        H    0.42271000  0.60751000  0.14159000  0.00000000
H        H    0.57729000  0.60751000  0.85841000  0.00000000
H        H    0.42271000  0.39249000  0.85841000  0.00000000
C        C    0.72290000  0.88921000  0.79880000  0.00000000
C        C    0.27710000  0.11079000  0.79880000  0.00000000
C        C    0.72290000  0.11079000  0.20120000  0.00000000
C        C    0.27710000  0.88921000  0.20120000  0.00000000
N        N    0.73919000  0.86519000  0.80461000  0.00000000
N        N    0.26081000  0.13481000  0.80461000  0.00000000
N        N    0.73919000  0.13481000  0.19539000  0.00000000
N        N    0.26081000  0.86519000  0.19539000  0.00000000
C        C    0.73279000  0.84190000  0.78750000  0.00000000
C        C    0.26721000  0.15810000  0.78750000  0.00000000
C        C    0.73279000  0.15810000  0.21250000  0.00000000
C        C    0.26721000  0.84190000  0.21250000  0.00000000
C        C    0.71050000  0.98489000  0.86060000  0.00000000
C        C    0.28950000  0.01511000  0.86060000  0.00000000
C        C    0.71050000  0.01511000  0.13940000  0.00000000
C        C    0.28950000  0.98489000  0.13940000  0.00000000
N        N    0.68901000  0.96899000  0.87340000  0.00000000
N        N    0.31099000  0.03101000  0.87340000  0.00000000
N        N    0.68901000  0.03101000  0.12660000  0.00000000
N        N    0.31099000  0.96899000  0.12660000  0.00000000
C        C    0.66750000  0.98599000  0.88521000  0.00000000
C        C    0.33250000  0.01401000  0.88521000  0.00000000
C        C    0.66750000  0.01401000  0.11479000  0.00000000
C        C    0.33250000  0.98599000  0.11479000  0.00000000
C        C    0.74540000  0.88729000  0.88729000  0.00000000
C        C    0.25460000  0.11271000  0.88729000  0.00000000
C        C    0.74540000  0.11271000  0.11271000  0.00000000
C        C    0.25460000  0.88729000  0.11271000  0.00000000
C        C    0.75639000  0.92851000  0.90720000  0.00000000
C        C    0.24361000  0.07149000  0.90720000  0.00000000
C        C    0.75639000  0.07149000  0.09280000  0.00000000
C        C    0.24361000  0.92851000  0.09280000  0.00000000
C        C    0.76420000  0.95701000  0.91300000  0.00000000
C        C    0.23580000  0.04299000  0.91300000  0.00000000
C        C    0.76420000  0.04299000  0.08700000  0.00000000
C        C    0.23580000  0.95701000  0.08700000  0.00000000
N        N    0.77099000  0.96220000  0.94201000  0.00000000
N        N    0.22901000  0.03780000  0.94201000  0.00000000
N        N    0.77099000  0.03780000  0.05799000  0.00000000
N        N    0.22901000  0.96220000  0.05799000  0.00000000
C        C    0.81669000  0.93051000  0.83799000  0.00000000
C        C    0.18331000  0.06949000  0.83799000  0.00000000
C        C    0.81669000  0.06949000  0.16201000  0.00000000
C        C    0.18331000  0.93051000  0.16201000  0.00000000
N        N    0.82320000  0.92710000  0.86730000  0.00000000
N        N    0.17680000  0.07290000  0.86730000  0.00000000
N        N    0.82320000  0.07290000  0.13270000  0.00000000
N        N    0.17680000  0.92710000  0.13270000  0.00000000
C        C    0.85221000  0.92459000  0.87260000  0.00000000
C        C    0.14779000  0.07541000  0.87260000  0.00000000
C        C    0.85221000  0.07541000  0.12740000  0.00000000
C        C    0.14779000  0.92459000  0.12740000  0.00000000
N        N    0.72340000  0.91619000  0.81180000  0.00000000
N        N    0.27660000  0.08381000  0.81180000  0.00000000
N        N    0.72340000  0.08381000  0.18820000  0.00000000
N        N    0.27660000  0.91619000  0.18820000  0.00000000
N        N    0.73480000  0.97511000  0.84591000  0.00000000
N        N    0.26520000  0.02489000  0.84591000  0.00000000
N        N    0.73480000  0.02489000  0.15409000  0.00000000
N        N    0.26520000  0.97511000  0.15409000  0.00000000
N        N    0.74909000  0.91571000  0.88061000  0.00000000
N        N    0.25091000  0.08429000  0.88061000  0.00000000
N        N    0.74909000  0.08429000  0.11939000  0.00000000
N        N    0.25091000  0.91571000  0.11939000  0.00000000
N        N    0.78940000  0.93429000  0.82480000  0.00000000
N        N    0.21060000  0.06571000  0.82480000  0.00000000
N        N    0.78940000  0.06571000  0.17520000  0.00000000
N        N    0.21060000  0.93429000  0.17520000  0.00000000
Zn       Zn   0.74951000  0.93440000  0.84171000  0.00000000
Zn       Zn   0.25049000  0.06560000  0.84171000  0.00000000
Zn       Zn   0.74951000  0.06560000  0.15829000  0.00000000
Zn       Zn   0.25049000  0.93440000  0.15829000  0.00000000
H        H    0.74370000  0.82440000  0.79029000  0.00000000
H        H    0.25630000  0.17560000  0.79029000  0.00000000
H        H    0.74370000  0.17560000  0.20971000  0.00000000
H        H    0.25630000  0.82440000  0.20971000  0.00000000
H        H    0.65129000  0.97629000  0.89420000  0.00000000
H        H    0.34871000  0.02371000  0.89420000  0.00000000
H        H    0.65129000  0.02371000  0.10580000  0.00000000
H        H    0.34871000  0.97629000  0.10580000  0.00000000
H        H    0.74060000  0.87289000  0.87289000  0.00000000
H        H    0.25940000  0.12711000  0.87289000  0.00000000
H        H    0.74060000  0.12711000  0.12711000  0.00000000
H        H    0.25940000  0.87289000  0.12711000  0.00000000
H        H    0.76479000  0.97181000  0.89829000  0.00000000
H        H    0.23521000  0.02819000  0.89829000  0.00000000
H        H    0.76479000  0.02819000  0.10171000  0.00000000
H        H    0.23521000  0.97181000  0.10171000  0.00000000
H        H    0.85841000  0.92270000  0.89251000  0.00000000
H        H    0.14159000  0.07730000  0.89251000  0.00000000
H        H    0.85841000  0.07730000  0.10749000  0.00000000
H        H    0.14159000  0.92270000  0.10749000  0.00000000
C        C    0.72290000  0.29881000  0.61080000  0.00000000
C        C    0.27710000  0.70119000  0.61080000  0.00000000
C        C    0.72290000  0.70119000  0.38920000  0.00000000
C        C    0.27710000  0.29881000  0.38920000  0.00000000
N        N    0.73919000  0.30459000  0.63479000  0.00000000
N        N    0.26081000  0.69541000  0.63479000  0.00000000
N        N    0.73919000  0.69541000  0.36521000  0.00000000
N        N    0.26081000  0.30459000  0.36521000  0.00000000
C        C    0.73279000  0.28750000  0.65810000  0.00000000
C        C    0.26721000  0.71250000  0.65810000  0.00000000
C        C    0.73279000  0.71250000  0.34190000  0.00000000
C        C    0.26721000  0.28750000  0.34190000  0.00000000
C        C    0.71050000  0.36060000  0.51509000  0.00000000
C        C    0.28950000  0.63940000  0.51509000  0.00000000
C        C    0.71050000  0.63940000  0.48491000  0.00000000
C        C    0.28950000  0.36060000  0.48491000  0.00000000
N        N    0.68901000  0.37340000  0.53099000  0.00000000
N        N    0.31099000  0.62660000  0.53099000  0.00000000
N        N    0.68901000  0.62660000  0.46901000  0.00000000
N        N    0.31099000  0.37340000  0.46901000  0.00000000
C        C    0.66750000  0.38521000  0.51399000  0.00000000
C        C    0.33250000  0.61479000  0.51399000  0.00000000
C        C    0.66750000  0.61479000  0.48601000  0.00000000
C        C    0.33250000  0.38521000  0.48601000  0.00000000
C        C    0.74540000  0.38730000  0.61271000  0.00000000
C        C    0.25460000  0.61270000  0.61271000  0.00000000
C        C    0.74540000  0.61270000  0.38729000  0.00000000
C        C    0.25460000  0.38730000  0.38729000  0.00000000
C        C    0.75639000  0.40720000  0.57150000  0.00000000
C        C    0.24361000  0.59280000  0.57150000  0.00000000
C        C    0.75639000  0.59280000  0.42850000  0.00000000
C        C    0.24361000  0.40720000  0.42850000  0.00000000
C        C    0.76420000  0.41301000  0.54300000  0.00000000
C        C    0.23580000  0.58699000  0.54300000  0.00000000
C        C    0.76420000  0.58699000  0.45700000  0.00000000
C        C    0.23580000  0.41301000  0.45700000  0.00000000
N        N    0.77099000  0.44199000  0.53781000  0.00000000
N        N    0.22901000  0.55801000  0.53781000  0.00000000
N        N    0.77099000  0.55801000  0.46219000  0.00000000
N        N    0.22901000  0.44199000  0.46219000  0.00000000
C        C    0.81669000  0.33800000  0.56950000  0.00000000
C        C    0.18331000  0.66200000  0.56950000  0.00000000
C        C    0.81669000  0.66200000  0.43050000  0.00000000
C        C    0.18331000  0.33800000  0.43050000  0.00000000
N        N    0.82320000  0.36731000  0.57291000  0.00000000
N        N    0.17680000  0.63269000  0.57291000  0.00000000
N        N    0.82320000  0.63269000  0.42709000  0.00000000
N        N    0.17680000  0.36731000  0.42709000  0.00000000
C        C    0.85221000  0.37261000  0.57539000  0.00000000
C        C    0.14779000  0.62739000  0.57539000  0.00000000
C        C    0.85221000  0.62739000  0.42461000  0.00000000
C        C    0.14779000  0.37261000  0.42461000  0.00000000
N        N    0.72340000  0.31180000  0.58379000  0.00000000
N        N    0.27660000  0.68820000  0.58379000  0.00000000
N        N    0.72340000  0.68820000  0.41621000  0.00000000
N        N    0.27660000  0.31180000  0.41621000  0.00000000
N        N    0.73480000  0.34589000  0.52490000  0.00000000
N        N    0.26520000  0.65411000  0.52490000  0.00000000
N        N    0.73480000  0.65411000  0.47510000  0.00000000
N        N    0.26520000  0.34589000  0.47510000  0.00000000
N        N    0.74909000  0.38059000  0.58430000  0.00000000
N        N    0.25091000  0.61941000  0.58430000  0.00000000
N        N    0.74909000  0.61941000  0.41570000  0.00000000
N        N    0.25091000  0.38059000  0.41570000  0.00000000
N        N    0.78940000  0.32480000  0.56569000  0.00000000
N        N    0.21060000  0.67520000  0.56569000  0.00000000
N        N    0.78940000  0.67520000  0.43431000  0.00000000
N        N    0.21060000  0.32480000  0.43431000  0.00000000
Zn       Zn   0.74951000  0.34169000  0.56561000  0.00000000
Zn       Zn   0.25049000  0.65831000  0.56561000  0.00000000
Zn       Zn   0.74951000  0.65831000  0.43439000  0.00000000
Zn       Zn   0.25049000  0.34169000  0.43439000  0.00000000
H        H    0.74370000  0.29030000  0.67561000  0.00000000
H        H    0.25630000  0.70970000  0.67561000  0.00000000
H        H    0.74370000  0.70970000  0.32439000  0.00000000
H        H    0.25630000  0.29030000  0.32439000  0.00000000
H        H    0.65129000  0.39421000  0.52369000  0.00000000
H        H    0.34871000  0.60579000  0.52369000  0.00000000
H        H    0.65129000  0.60579000  0.47631000  0.00000000
H        H    0.34871000  0.39421000  0.47631000  0.00000000
H        H    0.74060000  0.37290000  0.62709000  0.00000000
H        H    0.25940000  0.62710000  0.62709000  0.00000000
H        H    0.74060000  0.62710000  0.37291000  0.00000000
H        H    0.25940000  0.37290000  0.37291000  0.00000000
H        H    0.76479000  0.39830000  0.52820000  0.00000000
H        H    0.23521000  0.60170000  0.52820000  0.00000000
H        H    0.76479000  0.60170000  0.47180000  0.00000000
H        H    0.23521000  0.39830000  0.47180000  0.00000000
H        H    0.85841000  0.39249000  0.57730000  0.00000000
H        H    0.14159000  0.60751000  0.57730000  0.00000000
H        H    0.85841000  0.60751000  0.42270000  0.00000000
H        H    0.14159000  0.39249000  0.42270000  0.00000000
C        C    0.20120000  0.88921000  0.72291000  0.00000000
C        C    0.79880000  0.11079000  0.72291000  0.00000000
C        C    0.20120000  0.11079000  0.27709000  0.00000000
C        C    0.79880000  0.88921000  0.27709000  0.00000000
N        N    0.19539000  0.86519000  0.73921000  0.00000000
N        N    0.80461000  0.13481000  0.73921000  0.00000000
N        N    0.19539000  0.13481000  0.26079000  0.00000000
N        N    0.80461000  0.86519000  0.26079000  0.00000000
C        C    0.21250000  0.84190000  0.73281000  0.00000000
C        C    0.78750000  0.15810000  0.73281000  0.00000000
C        C    0.21250000  0.15810000  0.26719000  0.00000000
C        C    0.78750000  0.84190000  0.26719000  0.00000000
C        C    0.13940000  0.98489000  0.71051000  0.00000000
C        C    0.86060000  0.01511000  0.71051000  0.00000000
C        C    0.13940000  0.01511000  0.28949000  0.00000000
C        C    0.86060000  0.98489000  0.28949000  0.00000000
N        N    0.12660000  0.96899000  0.68900000  0.00000000
N        N    0.87340000  0.03101000  0.68900000  0.00000000
N        N    0.12660000  0.03101000  0.31100000  0.00000000
N        N    0.87340000  0.96899000  0.31100000  0.00000000
C        C    0.11479000  0.98599000  0.66749000  0.00000000
C        C    0.88521000  0.01401000  0.66749000  0.00000000
C        C    0.11479000  0.01401000  0.33251000  0.00000000
C        C    0.88521000  0.98599000  0.33251000  0.00000000
C        C    0.09280000  0.92851000  0.75640000  0.00000000
C        C    0.90720000  0.07149000  0.75640000  0.00000000
C        C    0.09280000  0.07149000  0.24360000  0.00000000
C        C    0.90720000  0.92851000  0.24360000  0.00000000
N        N    0.08700000  0.95701000  0.76421000  0.00000000
N        N    0.91300000  0.04299000  0.76421000  0.00000000
N        N    0.08700000  0.04299000  0.23579000  0.00000000
N        N    0.91300000  0.95701000  0.23579000  0.00000000
C        C    0.05799000  0.96220000  0.77100000  0.00000000
C        C    0.94201000  0.03780000  0.77100000  0.00000000
C        C    0.05799000  0.03780000  0.22900000  0.00000000
C        C    0.94201000  0.96220000  0.22900000  0.00000000
C        C    0.16201000  0.93051000  0.81670000  0.00000000
C        C    0.83799000  0.06949000  0.81670000  0.00000000
C        C    0.16201000  0.06949000  0.18330000  0.00000000
C        C    0.83799000  0.93051000  0.18330000  0.00000000
N        N    0.13270000  0.92710000  0.82319000  0.00000000
N        N    0.86730000  0.07290000  0.82319000  0.00000000
N        N    0.13270000  0.07290000  0.17681000  0.00000000
N        N    0.86730000  0.92710000  0.17681000  0.00000000
C        C    0.12740000  0.92459000  0.85220000  0.00000000
C        C    0.87260000  0.07541000  0.85220000  0.00000000
C        C    0.12740000  0.07541000  0.14780000  0.00000000
C        C    0.87260000  0.92459000  0.14780000  0.00000000
N        N    0.18820000  0.91619000  0.72339000  0.00000000
N        N    0.81180000  0.08381000  0.72339000  0.00000000
N        N    0.18820000  0.08381000  0.27661000  0.00000000
N        N    0.81180000  0.91619000  0.27661000  0.00000000
N        N    0.15409000  0.97511000  0.73481000  0.00000000
N        N    0.84591000  0.02489000  0.73481000  0.00000000
N        N    0.15409000  0.02489000  0.26519000  0.00000000
N        N    0.84591000  0.97511000  0.26519000  0.00000000
N        N    0.11939000  0.91571000  0.74910000  0.00000000
N        N    0.88061000  0.08429000  0.74910000  0.00000000
N        N    0.11939000  0.08429000  0.25090000  0.00000000
N        N    0.88061000  0.91571000  0.25090000  0.00000000
N        N    0.17520000  0.93429000  0.78939000  0.00000000
N        N    0.82480000  0.06571000  0.78939000  0.00000000
N        N    0.17520000  0.06571000  0.21061000  0.00000000
N        N    0.82480000  0.93429000  0.21061000  0.00000000
Zn       Zn   0.15829000  0.93440000  0.74950000  0.00000000
Zn       Zn   0.84171000  0.06560000  0.74950000  0.00000000
Zn       Zn   0.15829000  0.06560000  0.25050000  0.00000000
Zn       Zn   0.84171000  0.93440000  0.25050000  0.00000000
H        H    0.20971000  0.82440000  0.74369000  0.00000000
H        H    0.79029000  0.17560000  0.74369000  0.00000000
H        H    0.20971000  0.17560000  0.25631000  0.00000000
H        H    0.79029000  0.82440000  0.25631000  0.00000000
H        H    0.10580000  0.97629000  0.65131000  0.00000000
H        H    0.89420000  0.02371000  0.65131000  0.00000000
H        H    0.10580000  0.02371000  0.34869000  0.00000000
H        H    0.89420000  0.97629000  0.34869000  0.00000000
H        H    0.05241000  0.98170000  0.77600000  0.00000000
H        H    0.94759000  0.01830000  0.77600000  0.00000000
H        H    0.05241000  0.01830000  0.22400000  0.00000000
H        H    0.94759000  0.98170000  0.22400000  0.00000000
H        H    0.10749000  0.92270000  0.85840000  0.00000000
H        H    0.89251000  0.07730000  0.85840000  0.00000000
H        H    0.10749000  0.07730000  0.14160000  0.00000000
H        H    0.89251000  0.92270000  0.14160000  0.00000000
C        C    0.56889000  0.79711000  0.20290000  0.00000000
C        C    0.43111000  0.20289000  0.20290000  0.00000000
C        C    0.56889000  0.20289000  0.79710000  0.00000000
C        C    0.43111000  0.79711000  0.79710000  0.00000000
C        C    0.61081000  0.77710000  0.20121000  0.00000000
C        C    0.38919000  0.22290000  0.20121000  0.00000000
C        C    0.61081000  0.22290000  0.79879000  0.00000000
C        C    0.38919000  0.77710000  0.79879000  0.00000000
C        C    0.63480000  0.76080000  0.19540000  0.00000000
C        C    0.36520000  0.23920000  0.19540000  0.00000000
C        C    0.63480000  0.23920000  0.80460000  0.00000000
C        C    0.36520000  0.76080000  0.80460000  0.00000000
N        N    0.65809000  0.76720000  0.21249000  0.00000000
N        N    0.34191000  0.23280000  0.21249000  0.00000000
N        N    0.65809000  0.23280000  0.78751000  0.00000000
N        N    0.34191000  0.76720000  0.78751000  0.00000000
C        C    0.51510000  0.78950000  0.13939000  0.00000000
C        C    0.48490000  0.21050000  0.13939000  0.00000000
C        C    0.51510000  0.21050000  0.86061000  0.00000000
C        C    0.48490000  0.78950000  0.86061000  0.00000000
N        N    0.53100000  0.81101000  0.12659000  0.00000000
N        N    0.46900000  0.18899000  0.12659000  0.00000000
N        N    0.53100000  0.18899000  0.87341000  0.00000000
N        N    0.46900000  0.81101000  0.87341000  0.00000000
C        C    0.51400000  0.83249000  0.11481000  0.00000000
C        C    0.48600000  0.16751000  0.11481000  0.00000000
C        C    0.51400000  0.16751000  0.88519000  0.00000000
C        C    0.48600000  0.83249000  0.88519000  0.00000000
C        C    0.57151000  0.74360000  0.09279000  0.00000000
C        C    0.42849000  0.25640000  0.09279000  0.00000000
C        C    0.57151000  0.25640000  0.90721000  0.00000000
C        C    0.42849000  0.74360000  0.90721000  0.00000000
N        N    0.54301000  0.73580000  0.08701000  0.00000000
N        N    0.45699000  0.26420000  0.08701000  0.00000000
N        N    0.54301000  0.26420000  0.91299000  0.00000000
N        N    0.45699000  0.73580000  0.91299000  0.00000000
C        C    0.53780000  0.72900000  0.05800000  0.00000000
C        C    0.46220000  0.27100000  0.05800000  0.00000000
C        C    0.53780000  0.27100000  0.94200000  0.00000000
C        C    0.46220000  0.72900000  0.94200000  0.00000000
C        C    0.56951000  0.68330000  0.16200000  0.00000000
C        C    0.43049000  0.31670000  0.16200000  0.00000000
C        C    0.56951000  0.31670000  0.83800000  0.00000000
C        C    0.43049000  0.68330000  0.83800000  0.00000000
N        N    0.57290000  0.67679000  0.13271000  0.00000000
N        N    0.42710000  0.32321000  0.13271000  0.00000000
N        N    0.57290000  0.32321000  0.86729000  0.00000000
N        N    0.42710000  0.67679000  0.86729000  0.00000000
C        C    0.57540000  0.64781000  0.12741000  0.00000000
C        C    0.42460000  0.35219000  0.12741000  0.00000000
C        C    0.57540000  0.35219000  0.87259000  0.00000000
C        C    0.42460000  0.64781000  0.87259000  0.00000000
N        N    0.58380000  0.77659000  0.18819000  0.00000000
N        N    0.41620000  0.22341000  0.18819000  0.00000000
N        N    0.58380000  0.22341000  0.81181000  0.00000000
N        N    0.41620000  0.77659000  0.81181000  0.00000000
N        N    0.52491000  0.76520000  0.15410000  0.00000000
N        N    0.47509000  0.23480000  0.15410000  0.00000000
N        N    0.52491000  0.23480000  0.84590000  0.00000000
N        N    0.47509000  0.76520000  0.84590000  0.00000000
N        N    0.58431000  0.75090000  0.11940000  0.00000000
N        N    0.41569000  0.24910000  0.11940000  0.00000000
N        N    0.58431000  0.24910000  0.88060000  0.00000000
N        N    0.41569000  0.75090000  0.88060000  0.00000000
N        N    0.56570000  0.71059000  0.17519000  0.00000000
N        N    0.43430000  0.28941000  0.17519000  0.00000000
N        N    0.56570000  0.28941000  0.82481000  0.00000000
N        N    0.43430000  0.71059000  0.82481000  0.00000000
Zn       Zn   0.56559000  0.75051000  0.15830000  0.00000000
Zn       Zn   0.43441000  0.24949000  0.15830000  0.00000000
Zn       Zn   0.56559000  0.24949000  0.84170000  0.00000000
Zn       Zn   0.43441000  0.75051000  0.84170000  0.00000000
H        H    0.54879000  0.80100000  0.19901000  0.00000000
H        H    0.45121000  0.19900000  0.19901000  0.00000000
H        H    0.54879000  0.19900000  0.80099000  0.00000000
H        H    0.45121000  0.80100000  0.80099000  0.00000000
H        H    0.63531000  0.74620000  0.18049000  0.00000000
H        H    0.36469000  0.25380000  0.18049000  0.00000000
H        H    0.63531000  0.25380000  0.81951000  0.00000000
H        H    0.36469000  0.74620000  0.81951000  0.00000000
H        H    0.52370000  0.84870000  0.10579000  0.00000000
H        H    0.47630000  0.15130000  0.10579000  0.00000000
H        H    0.52370000  0.15130000  0.89421000  0.00000000
H        H    0.47630000  0.84870000  0.89421000  0.00000000
H        H    0.51829000  0.72401000  0.05239000  0.00000000
H        H    0.48171000  0.27599000  0.05239000  0.00000000
H        H    0.51829000  0.27599000  0.94761000  0.00000000
H        H    0.48171000  0.72401000  0.94761000  0.00000000
H        H    0.57729000  0.64161000  0.10750000  0.00000000
H        H    0.42271000  0.35839000  0.10750000  0.00000000
H        H    0.57729000  0.35839000  0.89250000  0.00000000
H        H    0.42271000  0.64161000  0.89250000  0.00000000
C        C    0.79879000  0.72291000  0.11080000  0.00000000
C        C    0.20121000  0.27709000  0.11080000  0.00000000
C        C    0.79879000  0.27709000  0.88920000  0.00000000
C        C    0.20121000  0.72291000  0.88920000  0.00000000
N        N    0.80460000  0.73921000  0.13480000  0.00000000
N        N    0.19540000  0.26079000  0.13480000  0.00000000
N        N    0.80460000  0.26079000  0.86520000  0.00000000
N        N    0.19540000  0.73921000  0.86520000  0.00000000
C        C    0.78751000  0.73281000  0.15811000  0.00000000
C        C    0.21249000  0.26719000  0.15811000  0.00000000
C        C    0.78751000  0.26719000  0.84189000  0.00000000
C        C    0.21249000  0.73281000  0.84189000  0.00000000
C        C    0.83789000  0.74840000  0.00000000  0.00000000
C        C    0.16211000  0.25160000  0.00000000  0.00000000
C        C    0.83789000  0.25160000  0.00000000  0.00000000
C        C    0.16211000  0.74840000  0.00000000  0.00000000
C        C    0.86061000  0.71051000  0.01510000  0.00000000
C        C    0.13939000  0.28949000  0.01510000  0.00000000
C        C    0.86061000  0.28949000  0.98490000  0.00000000
C        C    0.13939000  0.71051000  0.98490000  0.00000000
C        C    0.87341000  0.68900000  0.03100000  0.00000000
C        C    0.12659000  0.31100000  0.03100000  0.00000000
C        C    0.87341000  0.31100000  0.96900000  0.00000000
C        C    0.12659000  0.68900000  0.96900000  0.00000000
N        N    0.88519000  0.66749000  0.01400000  0.00000000
N        N    0.11481000  0.33251000  0.01400000  0.00000000
N        N    0.88519000  0.33251000  0.98600000  0.00000000
N        N    0.11481000  0.66749000  0.98600000  0.00000000
C        C    0.90721000  0.75640000  0.07150000  0.00000000
C        C    0.09279000  0.24360000  0.07150000  0.00000000
C        C    0.90721000  0.24360000  0.92850000  0.00000000
C        C    0.09279000  0.75640000  0.92850000  0.00000000
N        N    0.91299000  0.76421000  0.04300000  0.00000000
N        N    0.08701000  0.23579000  0.04300000  0.00000000
N        N    0.91299000  0.23579000  0.95700000  0.00000000
N        N    0.08701000  0.76421000  0.95700000  0.00000000
C        C    0.94200000  0.77100000  0.03779000  0.00000000
C        C    0.05800000  0.22900000  0.03779000  0.00000000
C        C    0.94200000  0.22900000  0.96221000  0.00000000
C        C    0.05800000  0.77100000  0.96221000  0.00000000
C        C    0.79620000  0.79621000  0.06401000  0.00000000
C        C    0.20380000  0.20379000  0.06401000  0.00000000
C        C    0.79620000  0.20379000  0.93599000  0.00000000
C        C    0.20380000  0.79621000  0.93599000  0.00000000
C        C    0.83800000  0.81670000  0.06950000  0.00000000
C        C    0.16200000  0.18330000  0.06950000  0.00000000
C        C    0.83800000  0.18330000  0.93050000  0.00000000
C        C    0.16200000  0.81670000  0.93050000  0.00000000
C        C    0.86729000  0.82319000  0.07289000  0.00000000
C        C    0.13271000  0.17681000  0.07289000  0.00000000
C        C    0.86729000  0.17681000  0.92711000  0.00000000
C        C    0.13271000  0.82319000  0.92711000  0.00000000
N        N    0.87259000  0.85220000  0.07540000  0.00000000
N        N    0.12741000  0.14780000  0.07540000  0.00000000
N        N    0.87259000  0.14780000  0.92460000  0.00000000
N        N    0.12741000  0.85220000  0.92460000  0.00000000
N        N    0.81181000  0.72339000  0.08380000  0.00000000
N        N    0.18819000  0.27661000  0.08380000  0.00000000
N        N    0.81181000  0.27661000  0.91620000  0.00000000
N        N    0.18819000  0.72339000  0.91620000  0.00000000
N        N    0.84590000  0.73481000  0.02491000  0.00000000
N        N    0.15410000  0.26519000  0.02491000  0.00000000
N        N    0.84590000  0.26519000  0.97509000  0.00000000
N        N    0.15410000  0.73481000  0.97509000  0.00000000
N        N    0.88060000  0.74910000  0.08430000  0.00000000
N        N    0.11940000  0.25090000  0.08430000  0.00000000
N        N    0.88060000  0.25090000  0.91570000  0.00000000
N        N    0.11940000  0.74910000  0.91570000  0.00000000
N        N    0.82481000  0.78939000  0.06570000  0.00000000
N        N    0.17519000  0.21061000  0.06570000  0.00000000
N        N    0.82481000  0.21061000  0.93430000  0.00000000
N        N    0.17519000  0.78939000  0.93430000  0.00000000
Zn       Zn   0.84170000  0.74950000  0.06559000  0.00000000
Zn       Zn   0.15830000  0.25050000  0.06559000  0.00000000
Zn       Zn   0.84170000  0.25050000  0.93441000  0.00000000
Zn       Zn   0.15830000  0.74950000  0.93441000  0.00000000
H        H    0.79030000  0.74369000  0.17559000  0.00000000
H        H    0.20970000  0.25631000  0.17559000  0.00000000
H        H    0.79030000  0.25631000  0.82441000  0.00000000
H        H    0.20970000  0.74369000  0.82441000  0.00000000
H        H    0.82720000  0.76630000  0.00000000  0.00000000
H        H    0.17280000  0.23370000  0.00000000  0.00000000
H        H    0.82720000  0.23370000  0.00000000  0.00000000
H        H    0.17280000  0.76630000  0.00000000  0.00000000
H        H    0.87400000  0.68891000  0.05180000  0.00000000
H        H    0.12600000  0.31109000  0.05180000  0.00000000
H        H    0.87400000  0.31109000  0.94820000  0.00000000
H        H    0.12600000  0.68891000  0.94820000  0.00000000
H        H    0.94761000  0.77600000  0.01831000  0.00000000
H        H    0.05239000  0.22400000  0.01831000  0.00000000
H        H    0.94761000  0.22400000  0.98169000  0.00000000
H        H    0.05239000  0.77600000  0.98169000  0.00000000
H        H    0.78151000  0.78149000  0.06161000  0.00000000
H        H    0.21849000  0.21851000  0.06161000  0.00000000
H        H    0.78151000  0.21851000  0.93839000  0.00000000
H        H    0.21849000  0.78149000  0.93839000  0.00000000
H        H    0.88229000  0.80870000  0.07351000  0.00000000
H        H    0.11771000  0.19130000  0.07351000  0.00000000
H        H    0.88229000  0.19130000  0.92649000  0.00000000
H        H    0.11771000  0.80870000  0.92649000  0.00000000
C        C    0.38920000  0.20121000  0.22289000  0.00000000
C        C    0.61080000  0.79879000  0.22289000  0.00000000
C        C    0.38920000  0.79879000  0.77711000  0.00000000
C        C    0.61080000  0.20121000  0.77711000  0.00000000
N        N    0.36521000  0.19540000  0.23921000  0.00000000
N        N    0.63479000  0.80460000  0.23921000  0.00000000
N        N    0.36521000  0.80460000  0.76079000  0.00000000
N        N    0.63479000  0.19540000  0.76079000  0.00000000
C        C    0.34190000  0.21249000  0.23279000  0.00000000
C        C    0.65810000  0.78751000  0.23279000  0.00000000
C        C    0.34190000  0.78751000  0.76721000  0.00000000
C        C    0.65810000  0.21249000  0.76721000  0.00000000
C        C    0.49999000  0.16211000  0.24840000  0.00000000
C        C    0.50001000  0.83789000  0.24840000  0.00000000
C        C    0.49999000  0.83789000  0.75160000  0.00000000
C        C    0.50001000  0.16211000  0.75160000  0.00000000
C        C    0.48491000  0.13939000  0.21049000  0.00000000
C        C    0.51509000  0.86061000  0.21049000  0.00000000
C        C    0.48491000  0.86061000  0.78951000  0.00000000
C        C    0.51509000  0.13939000  0.78951000  0.00000000
C        C    0.46901000  0.12659000  0.18900000  0.00000000
C        C    0.53099000  0.87341000  0.18900000  0.00000000
C        C    0.46901000  0.87341000  0.81100000  0.00000000
C        C    0.53099000  0.12659000  0.81100000  0.00000000
N        N    0.48601000  0.11481000  0.16750000  0.00000000
N        N    0.51399000  0.88519000  0.16750000  0.00000000
N        N    0.48601000  0.88519000  0.83250000  0.00000000
N        N    0.51399000  0.11481000  0.83250000  0.00000000
C        C    0.42850000  0.09279000  0.25641000  0.00000000
C        C    0.57150000  0.90721000  0.25641000  0.00000000
C        C    0.42850000  0.90721000  0.74359000  0.00000000
C        C    0.57150000  0.09279000  0.74359000  0.00000000
N        N    0.45700000  0.08701000  0.26419000  0.00000000
N        N    0.54300000  0.91299000  0.26419000  0.00000000
N        N    0.45700000  0.91299000  0.73581000  0.00000000
N        N    0.54300000  0.08701000  0.73581000  0.00000000
C        C    0.46219000  0.05800000  0.27101000  0.00000000
C        C    0.53781000  0.94200000  0.27101000  0.00000000
C        C    0.46219000  0.94200000  0.72899000  0.00000000
C        C    0.53781000  0.05800000  0.72899000  0.00000000
C        C    0.43600000  0.20380000  0.29619000  0.00000000
C        C    0.56400000  0.79620000  0.29619000  0.00000000
C        C    0.43600000  0.79620000  0.70381000  0.00000000
C        C    0.56400000  0.20380000  0.70381000  0.00000000
C        C    0.43050000  0.16200000  0.31671000  0.00000000
C        C    0.56950000  0.83800000  0.31671000  0.00000000
C        C    0.43050000  0.83800000  0.68329000  0.00000000
C        C    0.56950000  0.16200000  0.68329000  0.00000000
C        C    0.42709000  0.13271000  0.32320000  0.00000000
C        C    0.57291000  0.86729000  0.32320000  0.00000000
C        C    0.42709000  0.86729000  0.67680000  0.00000000
C        C    0.57291000  0.13271000  0.67680000  0.00000000
N        N    0.42461000  0.12741000  0.35220000  0.00000000
N        N    0.57539000  0.87259000  0.35220000  0.00000000
N        N    0.42461000  0.87259000  0.64780000  0.00000000
N        N    0.57539000  0.12741000  0.64780000  0.00000000
N        N    0.41621000  0.18819000  0.22340000  0.00000000
N        N    0.58379000  0.81181000  0.22340000  0.00000000
N        N    0.41621000  0.81181000  0.77660000  0.00000000
N        N    0.58379000  0.18819000  0.77660000  0.00000000
N        N    0.47510000  0.15410000  0.23479000  0.00000000
N        N    0.52490000  0.84590000  0.23479000  0.00000000
N        N    0.47510000  0.84590000  0.76521000  0.00000000
N        N    0.52490000  0.15410000  0.76521000  0.00000000
N        N    0.41570000  0.11940000  0.24911000  0.00000000
N        N    0.58430000  0.88060000  0.24911000  0.00000000
N        N    0.41570000  0.88060000  0.75089000  0.00000000
N        N    0.58430000  0.11940000  0.75089000  0.00000000
N        N    0.43431000  0.17519000  0.28939000  0.00000000
N        N    0.56569000  0.82481000  0.28939000  0.00000000
N        N    0.43431000  0.82481000  0.71061000  0.00000000
N        N    0.56569000  0.17519000  0.71061000  0.00000000
Zn       Zn   0.43439000  0.15830000  0.24950000  0.00000000
Zn       Zn   0.56561000  0.84170000  0.24950000  0.00000000
Zn       Zn   0.43439000  0.84170000  0.75050000  0.00000000
Zn       Zn   0.56561000  0.15830000  0.75050000  0.00000000
H        H    0.32439000  0.20970000  0.24370000  0.00000000
H        H    0.67561000  0.79030000  0.24370000  0.00000000
H        H    0.32439000  0.79030000  0.75630000  0.00000000
H        H    0.67561000  0.20970000  0.75630000  0.00000000
H        H    0.49999000  0.17280000  0.26630000  0.00000000
H        H    0.50001000  0.82720000  0.26630000  0.00000000
H        H    0.49999000  0.82720000  0.73370000  0.00000000
H        H    0.50001000  0.17280000  0.73370000  0.00000000
H        H    0.44820000  0.12600000  0.18889000  0.00000000
H        H    0.55180000  0.87400000  0.18889000  0.00000000
H        H    0.44820000  0.87400000  0.81111000  0.00000000
H        H    0.55180000  0.12600000  0.81111000  0.00000000
H        H    0.48170000  0.05239000  0.27600000  0.00000000
H        H    0.51830000  0.94761000  0.27600000  0.00000000
H        H    0.48170000  0.94761000  0.72400000  0.00000000
H        H    0.51830000  0.05239000  0.72400000  0.00000000
H        H    0.43840000  0.21849000  0.28150000  0.00000000
H        H    0.56160000  0.78151000  0.28150000  0.00000000
H        H    0.43840000  0.78151000  0.71850000  0.00000000
H        H    0.56160000  0.21849000  0.71850000  0.00000000
H        H    0.42650000  0.11771000  0.30870000  0.00000000
H        H    0.57350000  0.88229000  0.30870000  0.00000000
H        H    0.42650000  0.88229000  0.69130000  0.00000000
H        H    0.57350000  0.11771000  0.69130000  0.00000000
C        C    0.27709000  0.61080000  0.70120000  0.00000000
C        C    0.72291000  0.38920000  0.70120000  0.00000000
C        C    0.27709000  0.38920000  0.29880000  0.00000000
C        C    0.72291000  0.61080000  0.29880000  0.00000000
N        N    0.26079000  0.63479000  0.69540000  0.00000000
N        N    0.73921000  0.36521000  0.69540000  0.00000000
N        N    0.26079000  0.36521000  0.30460000  0.00000000
N        N    0.73921000  0.63479000  0.30460000  0.00000000
C        C    0.26719000  0.65810000  0.71251000  0.00000000
C        C    0.73281000  0.34190000  0.71251000  0.00000000
C        C    0.26719000  0.34190000  0.28749000  0.00000000
C        C    0.73281000  0.65810000  0.28749000  0.00000000
C        C    0.25160000  0.50001000  0.66210000  0.00000000
C        C    0.74840000  0.49999000  0.66210000  0.00000000
C        C    0.25160000  0.49999000  0.33790000  0.00000000
C        C    0.74840000  0.50001000  0.33790000  0.00000000
C        C    0.28949000  0.51509000  0.63941000  0.00000000
C        C    0.71051000  0.48491000  0.63941000  0.00000000
C        C    0.28949000  0.48491000  0.36059000  0.00000000
C        C    0.71051000  0.51509000  0.36059000  0.00000000
C        C    0.31100000  0.53099000  0.62661000  0.00000000
C        C    0.68900000  0.46901000  0.62661000  0.00000000
C        C    0.31100000  0.46901000  0.37339000  0.00000000
C        C    0.68900000  0.53099000  0.37339000  0.00000000
N        N    0.33251000  0.51399000  0.61480000  0.00000000
N        N    0.66749000  0.48601000  0.61480000  0.00000000
N        N    0.33251000  0.48601000  0.38520000  0.00000000
N        N    0.66749000  0.51399000  0.38520000  0.00000000
C        C    0.24360000  0.57150000  0.59281000  0.00000000
C        C    0.75640000  0.42850000  0.59281000  0.00000000
C        C    0.24360000  0.42850000  0.40719000  0.00000000
C        C    0.75640000  0.57150000  0.40719000  0.00000000
N        N    0.23579000  0.54300000  0.58700000  0.00000000
N        N    0.76421000  0.45700000  0.58700000  0.00000000
N        N    0.23579000  0.45700000  0.41300000  0.00000000
N        N    0.76421000  0.54300000  0.41300000  0.00000000
C        C    0.22900000  0.53781000  0.55800000  0.00000000
C        C    0.77100000  0.46219000  0.55800000  0.00000000
C        C    0.22900000  0.46219000  0.44200000  0.00000000
C        C    0.77100000  0.53781000  0.44200000  0.00000000
C        C    0.20379000  0.56400000  0.70380000  0.00000000
C        C    0.79621000  0.43600000  0.70380000  0.00000000
C        C    0.20379000  0.43600000  0.29620000  0.00000000
C        C    0.79621000  0.56400000  0.29620000  0.00000000
C        C    0.18330000  0.56950000  0.66199000  0.00000000
C        C    0.81670000  0.43050000  0.66199000  0.00000000
C        C    0.18330000  0.43050000  0.33801000  0.00000000
C        C    0.81670000  0.56950000  0.33801000  0.00000000
C        C    0.17681000  0.57291000  0.63270000  0.00000000
C        C    0.82319000  0.42709000  0.63270000  0.00000000
C        C    0.17681000  0.42709000  0.36730000  0.00000000
C        C    0.82319000  0.57291000  0.36730000  0.00000000
N        N    0.14780000  0.57539000  0.62740000  0.00000000
N        N    0.85220000  0.42461000  0.62740000  0.00000000
N        N    0.14780000  0.42461000  0.37260000  0.00000000
N        N    0.85220000  0.57539000  0.37260000  0.00000000
N        N    0.27661000  0.58379000  0.68821000  0.00000000
N        N    0.72339000  0.41621000  0.68821000  0.00000000
N        N    0.27661000  0.41621000  0.31179000  0.00000000
N        N    0.72339000  0.58379000  0.31179000  0.00000000
N        N    0.26519000  0.52490000  0.65410000  0.00000000
N        N    0.73481000  0.47510000  0.65410000  0.00000000
N        N    0.26519000  0.47510000  0.34590000  0.00000000
N        N    0.73481000  0.52490000  0.34590000  0.00000000
N        N    0.25090000  0.58430000  0.61940000  0.00000000
N        N    0.74910000  0.41570000  0.61940000  0.00000000
N        N    0.25090000  0.41570000  0.38060000  0.00000000
N        N    0.74910000  0.58430000  0.38060000  0.00000000
N        N    0.21061000  0.56569000  0.67521000  0.00000000
N        N    0.78939000  0.43431000  0.67521000  0.00000000
N        N    0.21061000  0.43431000  0.32479000  0.00000000
N        N    0.78939000  0.56569000  0.32479000  0.00000000
Zn       Zn   0.25050000  0.56561000  0.65830000  0.00000000
Zn       Zn   0.74950000  0.43439000  0.65830000  0.00000000
Zn       Zn   0.25050000  0.43439000  0.34170000  0.00000000
Zn       Zn   0.74950000  0.56561000  0.34170000  0.00000000
H        H    0.25631000  0.67561000  0.70969000  0.00000000
H        H    0.74369000  0.32439000  0.70969000  0.00000000
H        H    0.25631000  0.32439000  0.29031000  0.00000000
H        H    0.74369000  0.67561000  0.29031000  0.00000000
H        H    0.23370000  0.50001000  0.67279000  0.00000000
H        H    0.76630000  0.49999000  0.67279000  0.00000000
H        H    0.23370000  0.49999000  0.32721000  0.00000000
H        H    0.76630000  0.50001000  0.32721000  0.00000000
H        H    0.31109000  0.55180000  0.62599000  0.00000000
H        H    0.68891000  0.44820000  0.62599000  0.00000000
H        H    0.31109000  0.44820000  0.37401000  0.00000000
H        H    0.68891000  0.55180000  0.37401000  0.00000000
H        H    0.22400000  0.51830000  0.55241000  0.00000000
H        H    0.77600000  0.48170000  0.55241000  0.00000000
H        H    0.22400000  0.48170000  0.44759000  0.00000000
H        H    0.77600000  0.51830000  0.44759000  0.00000000
H        H    0.21851000  0.56160000  0.71849000  0.00000000
H        H    0.78149000  0.43840000  0.71849000  0.00000000
H        H    0.21851000  0.43840000  0.28151000  0.00000000
H        H    0.78149000  0.56160000  0.28151000  0.00000000
H        H    0.19130000  0.57350000  0.61770000  0.00000000
H        H    0.80870000  0.42650000  0.61770000  0.00000000
H        H    0.19130000  0.42650000  0.38230000  0.00000000
H        H    0.80870000  0.57350000  0.38230000  0.00000000
C        C    0.27709000  0.20121000  0.88921000  0.00000000
C        C    0.72291000  0.79879000  0.88921000  0.00000000
C        C    0.27709000  0.79879000  0.11079000  0.00000000
C        C    0.72291000  0.20121000  0.11079000  0.00000000
N        N    0.26079000  0.19540000  0.86519000  0.00000000
N        N    0.73921000  0.80460000  0.86519000  0.00000000
N        N    0.26079000  0.80460000  0.13481000  0.00000000
N        N    0.73921000  0.19540000  0.13481000  0.00000000
C        C    0.26719000  0.21249000  0.84190000  0.00000000
C        C    0.73281000  0.78751000  0.84190000  0.00000000
C        C    0.26719000  0.78751000  0.15810000  0.00000000
C        C    0.73281000  0.21249000  0.15810000  0.00000000
C        C    0.25160000  0.16211000  0.00000000  0.00000000
C        C    0.74840000  0.83789000  0.00000000  0.00000000
C        C    0.25160000  0.83789000  0.00000000  0.00000000
C        C    0.74840000  0.16211000  0.00000000  0.00000000
C        C    0.28949000  0.13939000  0.98489000  0.00000000
C        C    0.71051000  0.86061000  0.98489000  0.00000000
C        C    0.28949000  0.86061000  0.01511000  0.00000000
C        C    0.71051000  0.13939000  0.01511000  0.00000000
C        C    0.31100000  0.12659000  0.96899000  0.00000000
C        C    0.68900000  0.87341000  0.96899000  0.00000000
C        C    0.31100000  0.87341000  0.03101000  0.00000000
C        C    0.68900000  0.12659000  0.03101000  0.00000000
N        N    0.33251000  0.11481000  0.98599000  0.00000000
N        N    0.66749000  0.88519000  0.98599000  0.00000000
N        N    0.33251000  0.88519000  0.01401000  0.00000000
N        N    0.66749000  0.11481000  0.01401000  0.00000000
C        C    0.24360000  0.09279000  0.92851000  0.00000000
C        C    0.75640000  0.90721000  0.92851000  0.00000000
C        C    0.24360000  0.90721000  0.07149000  0.00000000
C        C    0.75640000  0.09279000  0.07149000  0.00000000
N        N    0.23579000  0.08701000  0.95701000  0.00000000
N        N    0.76421000  0.91299000  0.95701000  0.00000000
N        N    0.23579000  0.91299000  0.04299000  0.00000000
N        N    0.76421000  0.08701000  0.04299000  0.00000000
C        C    0.22900000  0.05800000  0.96220000  0.00000000
C        C    0.77100000  0.94200000  0.96220000  0.00000000
C        C    0.22900000  0.94200000  0.03780000  0.00000000
C        C    0.77100000  0.05800000  0.03780000  0.00000000
C        C    0.20379000  0.20380000  0.93601000  0.00000000
C        C    0.79621000  0.79620000  0.93601000  0.00000000
C        C    0.20379000  0.79620000  0.06399000  0.00000000
C        C    0.79621000  0.20380000  0.06399000  0.00000000
C        C    0.18330000  0.16200000  0.93051000  0.00000000
C        C    0.81670000  0.83800000  0.93051000  0.00000000
C        C    0.18330000  0.83800000  0.06949000  0.00000000
C        C    0.81670000  0.16200000  0.06949000  0.00000000
C        C    0.17681000  0.13271000  0.92710000  0.00000000
C        C    0.82319000  0.86729000  0.92710000  0.00000000
C        C    0.17681000  0.86729000  0.07290000  0.00000000
C        C    0.82319000  0.13271000  0.07290000  0.00000000
N        N    0.14780000  0.12741000  0.92459000  0.00000000
N        N    0.85220000  0.87259000  0.92459000  0.00000000
N        N    0.14780000  0.87259000  0.07541000  0.00000000
N        N    0.85220000  0.12741000  0.07541000  0.00000000
N        N    0.27661000  0.18819000  0.91619000  0.00000000
N        N    0.72339000  0.81181000  0.91619000  0.00000000
N        N    0.27661000  0.81181000  0.08381000  0.00000000
N        N    0.72339000  0.18819000  0.08381000  0.00000000
N        N    0.26519000  0.15410000  0.97511000  0.00000000
N        N    0.73481000  0.84590000  0.97511000  0.00000000
N        N    0.26519000  0.84590000  0.02489000  0.00000000
N        N    0.73481000  0.15410000  0.02489000  0.00000000
N        N    0.25090000  0.11940000  0.91571000  0.00000000
N        N    0.74910000  0.88060000  0.91571000  0.00000000
N        N    0.25090000  0.88060000  0.08429000  0.00000000
N        N    0.74910000  0.11940000  0.08429000  0.00000000
N        N    0.21061000  0.17519000  0.93429000  0.00000000
N        N    0.78939000  0.82481000  0.93429000  0.00000000
N        N    0.21061000  0.82481000  0.06571000  0.00000000
N        N    0.78939000  0.17519000  0.06571000  0.00000000
Zn       Zn   0.25050000  0.15830000  0.93440000  0.00000000
Zn       Zn   0.74950000  0.84170000  0.93440000  0.00000000
Zn       Zn   0.25050000  0.84170000  0.06560000  0.00000000
Zn       Zn   0.74950000  0.15830000  0.06560000  0.00000000
H        H    0.25631000  0.20970000  0.82440000  0.00000000
H        H    0.74369000  0.79030000  0.82440000  0.00000000
H        H    0.25631000  0.79030000  0.17560000  0.00000000
H        H    0.74369000  0.20970000  0.17560000  0.00000000
H        H    0.23370000  0.17280000  0.00000000  0.00000000
H        H    0.76630000  0.82720000  0.00000000  0.00000000
H        H    0.23370000  0.82720000  0.00000000  0.00000000
H        H    0.76630000  0.17280000  0.00000000  0.00000000
H        H    0.31109000  0.12600000  0.94821000  0.00000000
H        H    0.68891000  0.87400000  0.94821000  0.00000000
H        H    0.31109000  0.87400000  0.05179000  0.00000000
H        H    0.68891000  0.12600000  0.05179000  0.00000000
H        H    0.22400000  0.05239000  0.98170000  0.00000000
H        H    0.77600000  0.94761000  0.98170000  0.00000000
H        H    0.22400000  0.94761000  0.01830000  0.00000000
H        H    0.77600000  0.05239000  0.01830000  0.00000000
H        H    0.21851000  0.21849000  0.93840000  0.00000000
H        H    0.78149000  0.78151000  0.93840000  0.00000000
H        H    0.21851000  0.78151000  0.06160000  0.00000000
H        H    0.78149000  0.21849000  0.06160000  0.00000000
H        H    0.19130000  0.11771000  0.92651000  0.00000000
H        H    0.80870000  0.88229000  0.92651000  0.00000000
H        H    0.19130000  0.88229000  0.07349000  0.00000000
H        H    0.80870000  0.11771000  0.07349000  0.00000000
C        C    0.79879000  0.61080000  0.77710000  0.00000000
C        C    0.20121000  0.38920000  0.77710000  0.00000000
C        C    0.79879000  0.38920000  0.22290000  0.00000000
C        C    0.20121000  0.61080000  0.22290000  0.00000000
N        N    0.80460000  0.63479000  0.76080000  0.00000000
N        N    0.19540000  0.36521000  0.76080000  0.00000000
N        N    0.80460000  0.36521000  0.23920000  0.00000000
N        N    0.19540000  0.63479000  0.23920000  0.00000000
C        C    0.78751000  0.65810000  0.76720000  0.00000000
C        C    0.21249000  0.34190000  0.76720000  0.00000000
C        C    0.78751000  0.34190000  0.23280000  0.00000000
C        C    0.21249000  0.65810000  0.23280000  0.00000000
C        C    0.83789000  0.50001000  0.75161000  0.00000000
C        C    0.16211000  0.49999000  0.75161000  0.00000000
C        C    0.83789000  0.49999000  0.24839000  0.00000000
C        C    0.16211000  0.50001000  0.24839000  0.00000000
C        C    0.86061000  0.51509000  0.78950000  0.00000000
C        C    0.13939000  0.48491000  0.78950000  0.00000000
C        C    0.86061000  0.48491000  0.21050000  0.00000000
C        C    0.13939000  0.51509000  0.21050000  0.00000000
C        C    0.87341000  0.53099000  0.81101000  0.00000000
C        C    0.12659000  0.46901000  0.81101000  0.00000000
C        C    0.87341000  0.46901000  0.18899000  0.00000000
C        C    0.12659000  0.53099000  0.18899000  0.00000000
N        N    0.88519000  0.51399000  0.83249000  0.00000000
N        N    0.11481000  0.48601000  0.83249000  0.00000000
N        N    0.88519000  0.48601000  0.16751000  0.00000000
N        N    0.11481000  0.51399000  0.16751000  0.00000000
C        C    0.90721000  0.57150000  0.74360000  0.00000000
C        C    0.09279000  0.42850000  0.74360000  0.00000000
C        C    0.90721000  0.42850000  0.25640000  0.00000000
C        C    0.09279000  0.57150000  0.25640000  0.00000000
N        N    0.91299000  0.54300000  0.73580000  0.00000000
N        N    0.08701000  0.45700000  0.73580000  0.00000000
N        N    0.91299000  0.45700000  0.26420000  0.00000000
N        N    0.08701000  0.54300000  0.26420000  0.00000000
C        C    0.94200000  0.53781000  0.72900000  0.00000000
C        C    0.05800000  0.46219000  0.72900000  0.00000000
C        C    0.94200000  0.46219000  0.27100000  0.00000000
C        C    0.05800000  0.53781000  0.27100000  0.00000000
C        C    0.79620000  0.56400000  0.70380000  0.00000000
C        C    0.20380000  0.43600000  0.70380000  0.00000000
C        C    0.79620000  0.43600000  0.29620000  0.00000000
C        C    0.20380000  0.56400000  0.29620000  0.00000000
C        C    0.83800000  0.56950000  0.68330000  0.00000000
C        C    0.16200000  0.43050000  0.68330000  0.00000000
C        C    0.83800000  0.43050000  0.31670000  0.00000000
C        C    0.16200000  0.56950000  0.31670000  0.00000000
C        C    0.86729000  0.57291000  0.67679000  0.00000000
C        C    0.13271000  0.42709000  0.67679000  0.00000000
C        C    0.86729000  0.42709000  0.32321000  0.00000000
C        C    0.13271000  0.57291000  0.32321000  0.00000000
N        N    0.87259000  0.57539000  0.64781000  0.00000000
N        N    0.12741000  0.42461000  0.64781000  0.00000000
N        N    0.87259000  0.42461000  0.35219000  0.00000000
N        N    0.12741000  0.57539000  0.35219000  0.00000000
N        N    0.81181000  0.58379000  0.77659000  0.00000000
N        N    0.18819000  0.41621000  0.77659000  0.00000000
N        N    0.81181000  0.41621000  0.22341000  0.00000000
N        N    0.18819000  0.58379000  0.22341000  0.00000000
N        N    0.84590000  0.52490000  0.76520000  0.00000000
N        N    0.15410000  0.47510000  0.76520000  0.00000000
N        N    0.84590000  0.47510000  0.23480000  0.00000000
N        N    0.15410000  0.52490000  0.23480000  0.00000000
N        N    0.88060000  0.58430000  0.75090000  0.00000000
N        N    0.11940000  0.41570000  0.75090000  0.00000000
N        N    0.88060000  0.41570000  0.24910000  0.00000000
N        N    0.11940000  0.58430000  0.24910000  0.00000000
N        N    0.82481000  0.56569000  0.71059000  0.00000000
N        N    0.17519000  0.43431000  0.71059000  0.00000000
N        N    0.82481000  0.43431000  0.28941000  0.00000000
N        N    0.17519000  0.56569000  0.28941000  0.00000000
Zn       Zn   0.84170000  0.56561000  0.75051000  0.00000000
Zn       Zn   0.15830000  0.43439000  0.75051000  0.00000000
Zn       Zn   0.84170000  0.43439000  0.24949000  0.00000000
Zn       Zn   0.15830000  0.56561000  0.24949000  0.00000000
H        H    0.79030000  0.67561000  0.75629000  0.00000000
H        H    0.20970000  0.32439000  0.75629000  0.00000000
H        H    0.79030000  0.32439000  0.24371000  0.00000000
H        H    0.20970000  0.67561000  0.24371000  0.00000000
H        H    0.82720000  0.50001000  0.73371000  0.00000000
H        H    0.17280000  0.49999000  0.73371000  0.00000000
H        H    0.82720000  0.49999000  0.26629000  0.00000000
H        H    0.17280000  0.50001000  0.26629000  0.00000000
H        H    0.87400000  0.55180000  0.81109000  0.00000000
H        H    0.12600000  0.44820000  0.81109000  0.00000000
H        H    0.87400000  0.44820000  0.18891000  0.00000000
H        H    0.12600000  0.55180000  0.18891000  0.00000000
H        H    0.94761000  0.51830000  0.72401000  0.00000000
H        H    0.05239000  0.48170000  0.72401000  0.00000000
H        H    0.94761000  0.48170000  0.27599000  0.00000000
H        H    0.05239000  0.51830000  0.27599000  0.00000000
H        H    0.78151000  0.56160000  0.71849000  0.00000000
H        H    0.21849000  0.43840000  0.71849000  0.00000000
H        H    0.78151000  0.43840000  0.28151000  0.00000000
H        H    0.21849000  0.56160000  0.28151000  0.00000000
H        H    0.88229000  0.57350000  0.69131000  0.00000000
H        H    0.11771000  0.42650000  0.69131000  0.00000000
H        H    0.88229000  0.42650000  0.30869000  0.00000000
H        H    0.11771000  0.57350000  0.30869000  0.00000000
C        C    0.38920000  0.72291000  0.29881000  0.00000000
C        C    0.61080000  0.27709000  0.29881000  0.00000000
C        C    0.38920000  0.27709000  0.70119000  0.00000000
C        C    0.61080000  0.72291000  0.70119000  0.00000000
N        N    0.36521000  0.73921000  0.30459000  0.00000000
N        N    0.63479000  0.26079000  0.30459000  0.00000000
N        N    0.36521000  0.26079000  0.69541000  0.00000000
N        N    0.63479000  0.73921000  0.69541000  0.00000000
C        C    0.34190000  0.73281000  0.28750000  0.00000000
C        C    0.65810000  0.26719000  0.28750000  0.00000000
C        C    0.34190000  0.26719000  0.71250000  0.00000000
C        C    0.65810000  0.73281000  0.71250000  0.00000000
C        C    0.49999000  0.74840000  0.33791000  0.00000000
C        C    0.50001000  0.25160000  0.33791000  0.00000000
C        C    0.49999000  0.25160000  0.66209000  0.00000000
C        C    0.50001000  0.74840000  0.66209000  0.00000000
C        C    0.48491000  0.71051000  0.36060000  0.00000000
C        C    0.51509000  0.28949000  0.36060000  0.00000000
C        C    0.48491000  0.28949000  0.63940000  0.00000000
C        C    0.51509000  0.71051000  0.63940000  0.00000000
C        C    0.46901000  0.68900000  0.37340000  0.00000000
C        C    0.53099000  0.31100000  0.37340000  0.00000000
C        C    0.46901000  0.31100000  0.62660000  0.00000000
C        C    0.53099000  0.68900000  0.62660000  0.00000000
N        N    0.48601000  0.66749000  0.38521000  0.00000000
N        N    0.51399000  0.33251000  0.38521000  0.00000000
N        N    0.48601000  0.33251000  0.61479000  0.00000000
N        N    0.51399000  0.66749000  0.61479000  0.00000000
C        C    0.42850000  0.75640000  0.40720000  0.00000000
C        C    0.57150000  0.24360000  0.40720000  0.00000000
C        C    0.42850000  0.24360000  0.59280000  0.00000000
C        C    0.57150000  0.75640000  0.59280000  0.00000000
N        N    0.45700000  0.76421000  0.41301000  0.00000000
N        N    0.54300000  0.23579000  0.41301000  0.00000000
N        N    0.45700000  0.23579000  0.58699000  0.00000000
N        N    0.54300000  0.76421000  0.58699000  0.00000000
C        C    0.46219000  0.77100000  0.44199000  0.00000000
C        C    0.53781000  0.22900000  0.44199000  0.00000000
C        C    0.46219000  0.22900000  0.55801000  0.00000000
C        C    0.53781000  0.77100000  0.55801000  0.00000000
C        C    0.43600000  0.79621000  0.29619000  0.00000000
C        C    0.56400000  0.20379000  0.29619000  0.00000000
C        C    0.43600000  0.20379000  0.70381000  0.00000000
C        C    0.56400000  0.79621000  0.70381000  0.00000000
C        C    0.43050000  0.81670000  0.33800000  0.00000000
C        C    0.56950000  0.18330000  0.33800000  0.00000000
C        C    0.43050000  0.18330000  0.66200000  0.00000000
C        C    0.56950000  0.81670000  0.66200000  0.00000000
C        C    0.42709000  0.82319000  0.36731000  0.00000000
C        C    0.57291000  0.17681000  0.36731000  0.00000000
C        C    0.42709000  0.17681000  0.63269000  0.00000000
C        C    0.57291000  0.82319000  0.63269000  0.00000000
N        N    0.42461000  0.85220000  0.37261000  0.00000000
N        N    0.57539000  0.14780000  0.37261000  0.00000000
N        N    0.42461000  0.14780000  0.62739000  0.00000000
N        N    0.57539000  0.85220000  0.62739000  0.00000000
N        N    0.41621000  0.72339000  0.31180000  0.00000000
N        N    0.58379000  0.27661000  0.31180000  0.00000000
N        N    0.41621000  0.27661000  0.68820000  0.00000000
N        N    0.58379000  0.72339000  0.68820000  0.00000000
N        N    0.47510000  0.73481000  0.34589000  0.00000000
N        N    0.52490000  0.26519000  0.34589000  0.00000000
N        N    0.47510000  0.26519000  0.65411000  0.00000000
N        N    0.52490000  0.73481000  0.65411000  0.00000000
N        N    0.41570000  0.74910000  0.38059000  0.00000000
N        N    0.58430000  0.25090000  0.38059000  0.00000000
N        N    0.41570000  0.25090000  0.61941000  0.00000000
N        N    0.58430000  0.74910000  0.61941000  0.00000000
N        N    0.43431000  0.78939000  0.32480000  0.00000000
N        N    0.56569000  0.21061000  0.32480000  0.00000000
N        N    0.43431000  0.21061000  0.67520000  0.00000000
N        N    0.56569000  0.78939000  0.67520000  0.00000000
Zn       Zn   0.43439000  0.74950000  0.34169000  0.00000000
Zn       Zn   0.56561000  0.25050000  0.34169000  0.00000000
Zn       Zn   0.43439000  0.25050000  0.65831000  0.00000000
Zn       Zn   0.56561000  0.74950000  0.65831000  0.00000000
H        H    0.32439000  0.74369000  0.29030000  0.00000000
H        H    0.67561000  0.25631000  0.29030000  0.00000000
H        H    0.32439000  0.25631000  0.70970000  0.00000000
H        H    0.67561000  0.74369000  0.70970000  0.00000000
H        H    0.49999000  0.76630000  0.32720000  0.00000000
H        H    0.50001000  0.23370000  0.32720000  0.00000000
H        H    0.49999000  0.23370000  0.67280000  0.00000000
H        H    0.50001000  0.76630000  0.67280000  0.00000000
H        H    0.44820000  0.68891000  0.37400000  0.00000000
H        H    0.55180000  0.31109000  0.37400000  0.00000000
H        H    0.44820000  0.31109000  0.62600000  0.00000000
H        H    0.55180000  0.68891000  0.62600000  0.00000000
H        H    0.48170000  0.77600000  0.44760000  0.00000000
H        H    0.51830000  0.22400000  0.44760000  0.00000000
H        H    0.48170000  0.22400000  0.55240000  0.00000000
H        H    0.51830000  0.77600000  0.55240000  0.00000000
H        H    0.43840000  0.78149000  0.28150000  0.00000000
H        H    0.56160000  0.21851000  0.28150000  0.00000000
H        H    0.43840000  0.21851000  0.71850000  0.00000000
H        H    0.56160000  0.78149000  0.71850000  0.00000000
H        H    0.42650000  0.80870000  0.38231000  0.00000000
H        H    0.57350000  0.19130000  0.38231000  0.00000000
H        H    0.42650000  0.19130000  0.61769000  0.00000000
H        H    0.57350000  0.80870000  0.61769000  0.00000000
C        C    0.20120000  0.27710000  0.88921000  0.00000000
C        C    0.79880000  0.72290000  0.88921000  0.00000000
C        C    0.20120000  0.72290000  0.11079000  0.00000000
C        C    0.79880000  0.27710000  0.11079000  0.00000000
N        N    0.19539000  0.26081000  0.86519000  0.00000000
N        N    0.80461000  0.73919000  0.86519000  0.00000000
N        N    0.19539000  0.73919000  0.13481000  0.00000000
N        N    0.80461000  0.26081000  0.13481000  0.00000000
C        C    0.21250000  0.26721000  0.84190000  0.00000000
C        C    0.78750000  0.73279000  0.84190000  0.00000000
C        C    0.21250000  0.73279000  0.15810000  0.00000000
C        C    0.78750000  0.26721000  0.15810000  0.00000000
C        C    0.13940000  0.28950000  0.98489000  0.00000000
C        C    0.86060000  0.71050000  0.98489000  0.00000000
C        C    0.13940000  0.71050000  0.01511000  0.00000000
C        C    0.86060000  0.28950000  0.01511000  0.00000000
N        N    0.12660000  0.31099000  0.96899000  0.00000000
N        N    0.87340000  0.68901000  0.96899000  0.00000000
N        N    0.12660000  0.68901000  0.03101000  0.00000000
N        N    0.87340000  0.31099000  0.03101000  0.00000000
C        C    0.11479000  0.33250000  0.98599000  0.00000000
C        C    0.88521000  0.66750000  0.98599000  0.00000000
C        C    0.11479000  0.66750000  0.01401000  0.00000000
C        C    0.88521000  0.33250000  0.01401000  0.00000000
C        C    0.09280000  0.24361000  0.92851000  0.00000000
C        C    0.90720000  0.75639000  0.92851000  0.00000000
C        C    0.09280000  0.75639000  0.07149000  0.00000000
C        C    0.90720000  0.24361000  0.07149000  0.00000000
N        N    0.08700000  0.23580000  0.95701000  0.00000000
N        N    0.91300000  0.76420000  0.95701000  0.00000000
N        N    0.08700000  0.76420000  0.04299000  0.00000000
N        N    0.91300000  0.23580000  0.04299000  0.00000000
C        C    0.05799000  0.22901000  0.96220000  0.00000000
C        C    0.94201000  0.77099000  0.96220000  0.00000000
C        C    0.05799000  0.77099000  0.03780000  0.00000000
C        C    0.94201000  0.22901000  0.03780000  0.00000000
C        C    0.16201000  0.18331000  0.93051000  0.00000000
C        C    0.83799000  0.81669000  0.93051000  0.00000000
C        C    0.16201000  0.81669000  0.06949000  0.00000000
C        C    0.83799000  0.18331000  0.06949000  0.00000000
N        N    0.13270000  0.17680000  0.92710000  0.00000000
N        N    0.86730000  0.82320000  0.92710000  0.00000000
N        N    0.13270000  0.82320000  0.07290000  0.00000000
N        N    0.86730000  0.17680000  0.07290000  0.00000000
C        C    0.12740000  0.14779000  0.92459000  0.00000000
C        C    0.87260000  0.85221000  0.92459000  0.00000000
C        C    0.12740000  0.85221000  0.07541000  0.00000000
C        C    0.87260000  0.14779000  0.07541000  0.00000000
N        N    0.18820000  0.27660000  0.91619000  0.00000000
N        N    0.81180000  0.72340000  0.91619000  0.00000000
N        N    0.18820000  0.72340000  0.08381000  0.00000000
N        N    0.81180000  0.27660000  0.08381000  0.00000000
N        N    0.15409000  0.26520000  0.97511000  0.00000000
N        N    0.84591000  0.73480000  0.97511000  0.00000000
N        N    0.15409000  0.73480000  0.02489000  0.00000000
N        N    0.84591000  0.26520000  0.02489000  0.00000000
N        N    0.11939000  0.25091000  0.91571000  0.00000000
N        N    0.88061000  0.74909000  0.91571000  0.00000000
N        N    0.11939000  0.74909000  0.08429000  0.00000000
N        N    0.88061000  0.25091000  0.08429000  0.00000000
N        N    0.17520000  0.21060000  0.93429000  0.00000000
N        N    0.82480000  0.78940000  0.93429000  0.00000000
N        N    0.17520000  0.78940000  0.06571000  0.00000000
N        N    0.82480000  0.21060000  0.06571000  0.00000000
Zn       Zn   0.15829000  0.25049000  0.93440000  0.00000000
Zn       Zn   0.84171000  0.74951000  0.93440000  0.00000000
Zn       Zn   0.15829000  0.74951000  0.06560000  0.00000000
Zn       Zn   0.84171000  0.25049000  0.06560000  0.00000000
H        H    0.20971000  0.25630000  0.82440000  0.00000000
H        H    0.79029000  0.74370000  0.82440000  0.00000000
H        H    0.20971000  0.74370000  0.17560000  0.00000000
H        H    0.79029000  0.25630000  0.17560000  0.00000000
H        H    0.10580000  0.34871000  0.97629000  0.00000000
H        H    0.89420000  0.65129000  0.97629000  0.00000000
H        H    0.10580000  0.65129000  0.02371000  0.00000000
H        H    0.89420000  0.34871000  0.02371000  0.00000000
H        H    0.05241000  0.22399000  0.98170000  0.00000000
H        H    0.94759000  0.77601000  0.98170000  0.00000000
H        H    0.05241000  0.77601000  0.01830000  0.00000000
H        H    0.94759000  0.22399000  0.01830000  0.00000000
H        H    0.10749000  0.14159000  0.92270000  0.00000000
H        H    0.89251000  0.85841000  0.92270000  0.00000000
H        H    0.10749000  0.85841000  0.07730000  0.00000000
H        H    0.89251000  0.14159000  0.07730000  0.00000000
C        C    0.61081000  0.79880000  0.77710000  0.00000000
C        C    0.38919000  0.20120000  0.77710000  0.00000000
C        C    0.61081000  0.20120000  0.22290000  0.00000000
C        C    0.38919000  0.79880000  0.22290000  0.00000000
N        N    0.63480000  0.80461000  0.76080000  0.00000000
N        N    0.36520000  0.19539000  0.76080000  0.00000000
N        N    0.63480000  0.19539000  0.23920000  0.00000000
N        N    0.36520000  0.80461000  0.23920000  0.00000000
C        C    0.65809000  0.78750000  0.76720000  0.00000000
C        C    0.34191000  0.21250000  0.76720000  0.00000000
C        C    0.65809000  0.21250000  0.23280000  0.00000000
C        C    0.34191000  0.78750000  0.23280000  0.00000000
C        C    0.51510000  0.86060000  0.78950000  0.00000000
C        C    0.48490000  0.13940000  0.78950000  0.00000000
C        C    0.51510000  0.13940000  0.21050000  0.00000000
C        C    0.48490000  0.86060000  0.21050000  0.00000000
N        N    0.53100000  0.87340000  0.81101000  0.00000000
N        N    0.46900000  0.12660000  0.81101000  0.00000000
N        N    0.53100000  0.12660000  0.18899000  0.00000000
N        N    0.46900000  0.87340000  0.18899000  0.00000000
C        C    0.51400000  0.88521000  0.83249000  0.00000000
C        C    0.48600000  0.11479000  0.83249000  0.00000000
C        C    0.51400000  0.11479000  0.16751000  0.00000000
C        C    0.48600000  0.88521000  0.16751000  0.00000000
C        C    0.57151000  0.90720000  0.74360000  0.00000000
C        C    0.42849000  0.09280000  0.74360000  0.00000000
C        C    0.57151000  0.09280000  0.25640000  0.00000000
C        C    0.42849000  0.90720000  0.25640000  0.00000000
N        N    0.54301000  0.91300000  0.73580000  0.00000000
N        N    0.45699000  0.08700000  0.73580000  0.00000000
N        N    0.54301000  0.08700000  0.26420000  0.00000000
N        N    0.45699000  0.91300000  0.26420000  0.00000000
C        C    0.53780000  0.94201000  0.72900000  0.00000000
C        C    0.46220000  0.05799000  0.72900000  0.00000000
C        C    0.53780000  0.05799000  0.27100000  0.00000000
C        C    0.46220000  0.94201000  0.27100000  0.00000000
C        C    0.56951000  0.83799000  0.68330000  0.00000000
C        C    0.43049000  0.16201000  0.68330000  0.00000000
C        C    0.56951000  0.16201000  0.31670000  0.00000000
C        C    0.43049000  0.83799000  0.31670000  0.00000000
N        N    0.57290000  0.86730000  0.67679000  0.00000000
N        N    0.42710000  0.13270000  0.67679000  0.00000000
N        N    0.57290000  0.13270000  0.32321000  0.00000000
N        N    0.42710000  0.86730000  0.32321000  0.00000000
C        C    0.57540000  0.87260000  0.64781000  0.00000000
C        C    0.42460000  0.12740000  0.64781000  0.00000000
C        C    0.57540000  0.12740000  0.35219000  0.00000000
C        C    0.42460000  0.87260000  0.35219000  0.00000000
N        N    0.58380000  0.81180000  0.77659000  0.00000000
N        N    0.41620000  0.18820000  0.77659000  0.00000000
N        N    0.58380000  0.18820000  0.22341000  0.00000000
N        N    0.41620000  0.81180000  0.22341000  0.00000000
N        N    0.52491000  0.84591000  0.76520000  0.00000000
N        N    0.47509000  0.15409000  0.76520000  0.00000000
N        N    0.52491000  0.15409000  0.23480000  0.00000000
N        N    0.47509000  0.84591000  0.23480000  0.00000000
N        N    0.58431000  0.88061000  0.75090000  0.00000000
N        N    0.41569000  0.11939000  0.75090000  0.00000000
N        N    0.58431000  0.11939000  0.24910000  0.00000000
N        N    0.41569000  0.88061000  0.24910000  0.00000000
N        N    0.56570000  0.82480000  0.71059000  0.00000000
N        N    0.43430000  0.17520000  0.71059000  0.00000000
N        N    0.56570000  0.17520000  0.28941000  0.00000000
N        N    0.43430000  0.82480000  0.28941000  0.00000000
Zn       Zn   0.56559000  0.84171000  0.75051000  0.00000000
Zn       Zn   0.43441000  0.15829000  0.75051000  0.00000000
Zn       Zn   0.56559000  0.15829000  0.24949000  0.00000000
Zn       Zn   0.43441000  0.84171000  0.24949000  0.00000000
H        H    0.67560000  0.79029000  0.75629000  0.00000000
H        H    0.32440000  0.20971000  0.75629000  0.00000000
H        H    0.67560000  0.20971000  0.24371000  0.00000000
H        H    0.32440000  0.79029000  0.24371000  0.00000000
H        H    0.52370000  0.89420000  0.84870000  0.00000000
H        H    0.47630000  0.10580000  0.84870000  0.00000000
H        H    0.52370000  0.10580000  0.15130000  0.00000000
H        H    0.47630000  0.89420000  0.15130000  0.00000000
H        H    0.51829000  0.94759000  0.72401000  0.00000000
H        H    0.48171000  0.05241000  0.72401000  0.00000000
H        H    0.51829000  0.05241000  0.27599000  0.00000000
H        H    0.48171000  0.94759000  0.27599000  0.00000000
H        H    0.57729000  0.89251000  0.64161000  0.00000000
H        H    0.42271000  0.10749000  0.64161000  0.00000000
H        H    0.57729000  0.10749000  0.35839000  0.00000000
H        H    0.42271000  0.89251000  0.35839000  0.00000000
C        C    0.72290000  0.38919000  0.29881000  0.00000000
C        C    0.27710000  0.61081000  0.29881000  0.00000000
C        C    0.72290000  0.61081000  0.70119000  0.00000000
C        C    0.27710000  0.38919000  0.70119000  0.00000000
N        N    0.73919000  0.36520000  0.30459000  0.00000000
N        N    0.26081000  0.63480000  0.30459000  0.00000000
N        N    0.73919000  0.63480000  0.69541000  0.00000000
N        N    0.26081000  0.36520000  0.69541000  0.00000000
C        C    0.73279000  0.34191000  0.28750000  0.00000000
C        C    0.26721000  0.65809000  0.28750000  0.00000000
C        C    0.73279000  0.65809000  0.71250000  0.00000000
C        C    0.26721000  0.34191000  0.71250000  0.00000000
C        C    0.71050000  0.48490000  0.36060000  0.00000000
C        C    0.28950000  0.51510000  0.36060000  0.00000000
C        C    0.71050000  0.51510000  0.63940000  0.00000000
C        C    0.28950000  0.48490000  0.63940000  0.00000000
N        N    0.68901000  0.46900000  0.37340000  0.00000000
N        N    0.31099000  0.53100000  0.37340000  0.00000000
N        N    0.68901000  0.53100000  0.62660000  0.00000000
N        N    0.31099000  0.46900000  0.62660000  0.00000000
C        C    0.66750000  0.48600000  0.38521000  0.00000000
C        C    0.33250000  0.51400000  0.38521000  0.00000000
C        C    0.66750000  0.51400000  0.61479000  0.00000000
C        C    0.33250000  0.48600000  0.61479000  0.00000000
C        C    0.75639000  0.42849000  0.40720000  0.00000000
C        C    0.24361000  0.57151000  0.40720000  0.00000000
C        C    0.75639000  0.57151000  0.59280000  0.00000000
C        C    0.24361000  0.42849000  0.59280000  0.00000000
N        N    0.76420000  0.45699000  0.41301000  0.00000000
N        N    0.23580000  0.54301000  0.41301000  0.00000000
N        N    0.76420000  0.54301000  0.58699000  0.00000000
N        N    0.23580000  0.45699000  0.58699000  0.00000000
C        C    0.77099000  0.46220000  0.44199000  0.00000000
C        C    0.22901000  0.53780000  0.44199000  0.00000000
C        C    0.77099000  0.53780000  0.55801000  0.00000000
C        C    0.22901000  0.46220000  0.55801000  0.00000000
C        C    0.81669000  0.43049000  0.33800000  0.00000000
C        C    0.18331000  0.56951000  0.33800000  0.00000000
C        C    0.81669000  0.56951000  0.66200000  0.00000000
C        C    0.18331000  0.43049000  0.66200000  0.00000000
N        N    0.82320000  0.42710000  0.36731000  0.00000000
N        N    0.17680000  0.57290000  0.36731000  0.00000000
N        N    0.82320000  0.57290000  0.63269000  0.00000000
N        N    0.17680000  0.42710000  0.63269000  0.00000000
C        C    0.85221000  0.42460000  0.37261000  0.00000000
C        C    0.14779000  0.57540000  0.37261000  0.00000000
C        C    0.85221000  0.57540000  0.62739000  0.00000000
C        C    0.14779000  0.42460000  0.62739000  0.00000000
N        N    0.72340000  0.41620000  0.31180000  0.00000000
N        N    0.27660000  0.58380000  0.31180000  0.00000000
N        N    0.72340000  0.58380000  0.68820000  0.00000000
N        N    0.27660000  0.41620000  0.68820000  0.00000000
N        N    0.73480000  0.47509000  0.34589000  0.00000000
N        N    0.26520000  0.52491000  0.34589000  0.00000000
N        N    0.73480000  0.52491000  0.65411000  0.00000000
N        N    0.26520000  0.47509000  0.65411000  0.00000000
N        N    0.74909000  0.41569000  0.38059000  0.00000000
N        N    0.25091000  0.58431000  0.38059000  0.00000000
N        N    0.74909000  0.58431000  0.61941000  0.00000000
N        N    0.25091000  0.41569000  0.61941000  0.00000000
N        N    0.78940000  0.43430000  0.32480000  0.00000000
N        N    0.21060000  0.56570000  0.32480000  0.00000000
N        N    0.78940000  0.56570000  0.67520000  0.00000000
N        N    0.21060000  0.43430000  0.67520000  0.00000000
Zn       Zn   0.74951000  0.43441000  0.34169000  0.00000000
Zn       Zn   0.25049000  0.56559000  0.34169000  0.00000000
Zn       Zn   0.74951000  0.56559000  0.65831000  0.00000000
Zn       Zn   0.25049000  0.43441000  0.65831000  0.00000000
H        H    0.74370000  0.32440000  0.29030000  0.00000000
H        H    0.25630000  0.67560000  0.29030000  0.00000000
H        H    0.74370000  0.67560000  0.70970000  0.00000000
H        H    0.25630000  0.32440000  0.70970000  0.00000000
H        H    0.65129000  0.47630000  0.39421000  0.00000000
H        H    0.34871000  0.52370000  0.39421000  0.00000000
H        H    0.65129000  0.52370000  0.60579000  0.00000000
H        H    0.34871000  0.47630000  0.60579000  0.00000000
H        H    0.77601000  0.48171000  0.44760000  0.00000000
H        H    0.22399000  0.51829000  0.44760000  0.00000000
H        H    0.77601000  0.51829000  0.55240000  0.00000000
H        H    0.22399000  0.48171000  0.55240000  0.00000000
H        H    0.85841000  0.42271000  0.39249000  0.00000000
H        H    0.14159000  0.57729000  0.39249000  0.00000000
H        H    0.85841000  0.57729000  0.60751000  0.00000000
H        H    0.14159000  0.42271000  0.60751000  0.00000000
C        C    0.72290000  0.79880000  0.11080000  0.00000000
C        C    0.27710000  0.20120000  0.11080000  0.00000000
C        C    0.72290000  0.20120000  0.88920000  0.00000000
C        C    0.27710000  0.79880000  0.88920000  0.00000000
N        N    0.73919000  0.80461000  0.13480000  0.00000000
N        N    0.26081000  0.19539000  0.13480000  0.00000000
N        N    0.73919000  0.19539000  0.86520000  0.00000000
N        N    0.26081000  0.80461000  0.86520000  0.00000000
C        C    0.73279000  0.78750000  0.15811000  0.00000000
C        C    0.26721000  0.21250000  0.15811000  0.00000000
C        C    0.73279000  0.21250000  0.84189000  0.00000000
C        C    0.26721000  0.78750000  0.84189000  0.00000000
C        C    0.71050000  0.86060000  0.01510000  0.00000000
C        C    0.28950000  0.13940000  0.01510000  0.00000000
C        C    0.71050000  0.13940000  0.98490000  0.00000000
C        C    0.28950000  0.86060000  0.98490000  0.00000000
N        N    0.68901000  0.87340000  0.03100000  0.00000000
N        N    0.31099000  0.12660000  0.03100000  0.00000000
N        N    0.68901000  0.12660000  0.96900000  0.00000000
N        N    0.31099000  0.87340000  0.96900000  0.00000000
C        C    0.66750000  0.88521000  0.01400000  0.00000000
C        C    0.33250000  0.11479000  0.01400000  0.00000000
C        C    0.66750000  0.11479000  0.98600000  0.00000000
C        C    0.33250000  0.88521000  0.98600000  0.00000000
C        C    0.75639000  0.90720000  0.07150000  0.00000000
C        C    0.24361000  0.09280000  0.07150000  0.00000000
C        C    0.75639000  0.09280000  0.92850000  0.00000000
C        C    0.24361000  0.90720000  0.92850000  0.00000000
N        N    0.76420000  0.91300000  0.04300000  0.00000000
N        N    0.23580000  0.08700000  0.04300000  0.00000000
N        N    0.76420000  0.08700000  0.95700000  0.00000000
N        N    0.23580000  0.91300000  0.95700000  0.00000000
C        C    0.77099000  0.94201000  0.03779000  0.00000000
C        C    0.22901000  0.05799000  0.03779000  0.00000000
C        C    0.77099000  0.05799000  0.96221000  0.00000000
C        C    0.22901000  0.94201000  0.96221000  0.00000000
C        C    0.81669000  0.83799000  0.06950000  0.00000000
C        C    0.18331000  0.16201000  0.06950000  0.00000000
C        C    0.81669000  0.16201000  0.93050000  0.00000000
C        C    0.18331000  0.83799000  0.93050000  0.00000000
N        N    0.82320000  0.86730000  0.07289000  0.00000000
N        N    0.17680000  0.13270000  0.07289000  0.00000000
N        N    0.82320000  0.13270000  0.92711000  0.00000000
N        N    0.17680000  0.86730000  0.92711000  0.00000000
C        C    0.85221000  0.87260000  0.07540000  0.00000000
C        C    0.14779000  0.12740000  0.07540000  0.00000000
C        C    0.85221000  0.12740000  0.92460000  0.00000000
C        C    0.14779000  0.87260000  0.92460000  0.00000000
N        N    0.72340000  0.81180000  0.08380000  0.00000000
N        N    0.27660000  0.18820000  0.08380000  0.00000000
N        N    0.72340000  0.18820000  0.91620000  0.00000000
N        N    0.27660000  0.81180000  0.91620000  0.00000000
N        N    0.73480000  0.84591000  0.02491000  0.00000000
N        N    0.26520000  0.15409000  0.02491000  0.00000000
N        N    0.73480000  0.15409000  0.97509000  0.00000000
N        N    0.26520000  0.84591000  0.97509000  0.00000000
N        N    0.74909000  0.88061000  0.08430000  0.00000000
N        N    0.25091000  0.11939000  0.08430000  0.00000000
N        N    0.74909000  0.11939000  0.91570000  0.00000000
N        N    0.25091000  0.88061000  0.91570000  0.00000000
N        N    0.78940000  0.82480000  0.06570000  0.00000000
N        N    0.21060000  0.17520000  0.06570000  0.00000000
N        N    0.78940000  0.17520000  0.93430000  0.00000000
N        N    0.21060000  0.82480000  0.93430000  0.00000000
Zn       Zn   0.74951000  0.84171000  0.06559000  0.00000000
Zn       Zn   0.25049000  0.15829000  0.06559000  0.00000000
Zn       Zn   0.74951000  0.15829000  0.93441000  0.00000000
Zn       Zn   0.25049000  0.84171000  0.93441000  0.00000000
H        H    0.74370000  0.79029000  0.17559000  0.00000000
H        H    0.25630000  0.20971000  0.17559000  0.00000000
H        H    0.74370000  0.20971000  0.82441000  0.00000000
H        H    0.25630000  0.79029000  0.82441000  0.00000000
H        H    0.65129000  0.89420000  0.02370000  0.00000000
H        H    0.34871000  0.10580000  0.02370000  0.00000000
H        H    0.65129000  0.10580000  0.97630000  0.00000000
H        H    0.34871000  0.89420000  0.97630000  0.00000000
H        H    0.77601000  0.94759000  0.01831000  0.00000000
H        H    0.22399000  0.05241000  0.01831000  0.00000000
H        H    0.77601000  0.05241000  0.98169000  0.00000000
H        H    0.22399000  0.94759000  0.98169000  0.00000000
H        H    0.85841000  0.89251000  0.07731000  0.00000000
H        H    0.14159000  0.10749000  0.07731000  0.00000000
H        H    0.85841000  0.10749000  0.92269000  0.00000000
H        H    0.14159000  0.89251000  0.92269000  0.00000000
C        C    0.20120000  0.38919000  0.22289000  0.00000000
C        C    0.79880000  0.61081000  0.22289000  0.00000000
C        C    0.20120000  0.61081000  0.77711000  0.00000000
C        C    0.79880000  0.38919000  0.77711000  0.00000000
N        N    0.19539000  0.36520000  0.23921000  0.00000000
N        N    0.80461000  0.63480000  0.23921000  0.00000000
N        N    0.19539000  0.63480000  0.76079000  0.00000000
N        N    0.80461000  0.36520000  0.76079000  0.00000000
C        C    0.21250000  0.34191000  0.23279000  0.00000000
C        C    0.78750000  0.65809000  0.23279000  0.00000000
C        C    0.21250000  0.65809000  0.76721000  0.00000000
C        C    0.78750000  0.34191000  0.76721000  0.00000000
C        C    0.13940000  0.48490000  0.21049000  0.00000000
C        C    0.86060000  0.51510000  0.21049000  0.00000000
C        C    0.13940000  0.51510000  0.78951000  0.00000000
C        C    0.86060000  0.48490000  0.78951000  0.00000000
N        N    0.12660000  0.46900000  0.18900000  0.00000000
N        N    0.87340000  0.53100000  0.18900000  0.00000000
N        N    0.12660000  0.53100000  0.81100000  0.00000000
N        N    0.87340000  0.46900000  0.81100000  0.00000000
C        C    0.11479000  0.48600000  0.16750000  0.00000000
C        C    0.88521000  0.51400000  0.16750000  0.00000000
C        C    0.11479000  0.51400000  0.83250000  0.00000000
C        C    0.88521000  0.48600000  0.83250000  0.00000000
C        C    0.09280000  0.42849000  0.25641000  0.00000000
C        C    0.90720000  0.57151000  0.25641000  0.00000000
C        C    0.09280000  0.57151000  0.74359000  0.00000000
C        C    0.90720000  0.42849000  0.74359000  0.00000000
N        N    0.08700000  0.45699000  0.26419000  0.00000000
N        N    0.91300000  0.54301000  0.26419000  0.00000000
N        N    0.08700000  0.54301000  0.73581000  0.00000000
N        N    0.91300000  0.45699000  0.73581000  0.00000000
C        C    0.05799000  0.46220000  0.27101000  0.00000000
C        C    0.94201000  0.53780000  0.27101000  0.00000000
C        C    0.05799000  0.53780000  0.72899000  0.00000000
C        C    0.94201000  0.46220000  0.72899000  0.00000000
C        C    0.16201000  0.43049000  0.31671000  0.00000000
C        C    0.83799000  0.56951000  0.31671000  0.00000000
C        C    0.16201000  0.56951000  0.68329000  0.00000000
C        C    0.83799000  0.43049000  0.68329000  0.00000000
N        N    0.13270000  0.42710000  0.32320000  0.00000000
N        N    0.86730000  0.57290000  0.32320000  0.00000000
N        N    0.13270000  0.57290000  0.67680000  0.00000000
N        N    0.86730000  0.42710000  0.67680000  0.00000000
C        C    0.12740000  0.42460000  0.35220000  0.00000000
C        C    0.87260000  0.57540000  0.35220000  0.00000000
C        C    0.12740000  0.57540000  0.64780000  0.00000000
C        C    0.87260000  0.42460000  0.64780000  0.00000000
N        N    0.18820000  0.41620000  0.22340000  0.00000000
N        N    0.81180000  0.58380000  0.22340000  0.00000000
N        N    0.18820000  0.58380000  0.77660000  0.00000000
N        N    0.81180000  0.41620000  0.77660000  0.00000000
N        N    0.15409000  0.47509000  0.23479000  0.00000000
N        N    0.84591000  0.52491000  0.23479000  0.00000000
N        N    0.15409000  0.52491000  0.76521000  0.00000000
N        N    0.84591000  0.47509000  0.76521000  0.00000000
N        N    0.11939000  0.41569000  0.24911000  0.00000000
N        N    0.88061000  0.58431000  0.24911000  0.00000000
N        N    0.11939000  0.58431000  0.75089000  0.00000000
N        N    0.88061000  0.41569000  0.75089000  0.00000000
N        N    0.17520000  0.43430000  0.28939000  0.00000000
N        N    0.82480000  0.56570000  0.28939000  0.00000000
N        N    0.17520000  0.56570000  0.71061000  0.00000000
N        N    0.82480000  0.43430000  0.71061000  0.00000000
Zn       Zn   0.15829000  0.43441000  0.24950000  0.00000000
Zn       Zn   0.84171000  0.56559000  0.24950000  0.00000000
Zn       Zn   0.15829000  0.56559000  0.75050000  0.00000000
Zn       Zn   0.84171000  0.43441000  0.75050000  0.00000000
H        H    0.20971000  0.32440000  0.24370000  0.00000000
H        H    0.79029000  0.67560000  0.24370000  0.00000000
H        H    0.20971000  0.67560000  0.75630000  0.00000000
H        H    0.79029000  0.32440000  0.75630000  0.00000000
H        H    0.10580000  0.47630000  0.15129000  0.00000000
H        H    0.89420000  0.52370000  0.15129000  0.00000000
H        H    0.10580000  0.52370000  0.84871000  0.00000000
H        H    0.89420000  0.47630000  0.84871000  0.00000000
H        H    0.05241000  0.48171000  0.27600000  0.00000000
H        H    0.94759000  0.51829000  0.27600000  0.00000000
H        H    0.05241000  0.51829000  0.72400000  0.00000000
H        H    0.94759000  0.48171000  0.72400000  0.00000000
H        H    0.10749000  0.42271000  0.35840000  0.00000000
H        H    0.89251000  0.57729000  0.35840000  0.00000000
H        H    0.10749000  0.57729000  0.64160000  0.00000000
H        H    0.89251000  0.42271000  0.64160000  0.00000000
C        C    0.61081000  0.27710000  0.70120000  0.00000000
C        C    0.38919000  0.72290000  0.70120000  0.00000000
C        C    0.61081000  0.72290000  0.29880000  0.00000000
C        C    0.38919000  0.27710000  0.29880000  0.00000000
N        N    0.63480000  0.26081000  0.69540000  0.00000000
N        N    0.36520000  0.73919000  0.69540000  0.00000000
N        N    0.63480000  0.73919000  0.30460000  0.00000000
N        N    0.36520000  0.26081000  0.30460000  0.00000000
C        C    0.65809000  0.26721000  0.71251000  0.00000000
C        C    0.34191000  0.73279000  0.71251000  0.00000000
C        C    0.65809000  0.73279000  0.28749000  0.00000000
C        C    0.34191000  0.26721000  0.28749000  0.00000000
C        C    0.51510000  0.28950000  0.63941000  0.00000000
C        C    0.48490000  0.71050000  0.63941000  0.00000000
C        C    0.51510000  0.71050000  0.36059000  0.00000000
C        C    0.48490000  0.28950000  0.36059000  0.00000000
N        N    0.53100000  0.31099000  0.62661000  0.00000000
N        N    0.46900000  0.68901000  0.62661000  0.00000000
N        N    0.53100000  0.68901000  0.37339000  0.00000000
N        N    0.46900000  0.31099000  0.37339000  0.00000000
C        C    0.51400000  0.33250000  0.61480000  0.00000000
C        C    0.48600000  0.66750000  0.61480000  0.00000000
C        C    0.51400000  0.66750000  0.38520000  0.00000000
C        C    0.48600000  0.33250000  0.38520000  0.00000000
C        C    0.57151000  0.24361000  0.59281000  0.00000000
C        C    0.42849000  0.75639000  0.59281000  0.00000000
C        C    0.57151000  0.75639000  0.40719000  0.00000000
C        C    0.42849000  0.24361000  0.40719000  0.00000000
N        N    0.54301000  0.23580000  0.58700000  0.00000000
N        N    0.45699000  0.76420000  0.58700000  0.00000000
N        N    0.54301000  0.76420000  0.41300000  0.00000000
N        N    0.45699000  0.23580000  0.41300000  0.00000000
C        C    0.53780000  0.22901000  0.55800000  0.00000000
C        C    0.46220000  0.77099000  0.55800000  0.00000000
C        C    0.53780000  0.77099000  0.44200000  0.00000000
C        C    0.46220000  0.22901000  0.44200000  0.00000000
C        C    0.56951000  0.18331000  0.66199000  0.00000000
C        C    0.43049000  0.81669000  0.66199000  0.00000000
C        C    0.56951000  0.81669000  0.33801000  0.00000000
C        C    0.43049000  0.18331000  0.33801000  0.00000000
N        N    0.57290000  0.17680000  0.63270000  0.00000000
N        N    0.42710000  0.82320000  0.63270000  0.00000000
N        N    0.57290000  0.82320000  0.36730000  0.00000000
N        N    0.42710000  0.17680000  0.36730000  0.00000000
C        C    0.57540000  0.14779000  0.62740000  0.00000000
C        C    0.42460000  0.85221000  0.62740000  0.00000000
C        C    0.57540000  0.85221000  0.37260000  0.00000000
C        C    0.42460000  0.14779000  0.37260000  0.00000000
N        N    0.58380000  0.27660000  0.68821000  0.00000000
N        N    0.41620000  0.72340000  0.68821000  0.00000000
N        N    0.58380000  0.72340000  0.31179000  0.00000000
N        N    0.41620000  0.27660000  0.31179000  0.00000000
N        N    0.52491000  0.26520000  0.65410000  0.00000000
N        N    0.47509000  0.73480000  0.65410000  0.00000000
N        N    0.52491000  0.73480000  0.34590000  0.00000000
N        N    0.47509000  0.26520000  0.34590000  0.00000000
N        N    0.58431000  0.25091000  0.61940000  0.00000000
N        N    0.41569000  0.74909000  0.61940000  0.00000000
N        N    0.58431000  0.74909000  0.38060000  0.00000000
N        N    0.41569000  0.25091000  0.38060000  0.00000000
N        N    0.56570000  0.21060000  0.67521000  0.00000000
N        N    0.43430000  0.78940000  0.67521000  0.00000000
N        N    0.56570000  0.78940000  0.32479000  0.00000000
N        N    0.43430000  0.21060000  0.32479000  0.00000000
Zn       Zn   0.56559000  0.25049000  0.65830000  0.00000000
Zn       Zn   0.43441000  0.74951000  0.65830000  0.00000000
Zn       Zn   0.56559000  0.74951000  0.34170000  0.00000000
Zn       Zn   0.43441000  0.25049000  0.34170000  0.00000000
H        H    0.67560000  0.25630000  0.70969000  0.00000000
H        H    0.32440000  0.74370000  0.70969000  0.00000000
H        H    0.67560000  0.74370000  0.29031000  0.00000000
H        H    0.32440000  0.25630000  0.29031000  0.00000000
H        H    0.52370000  0.34871000  0.60581000  0.00000000
H        H    0.47630000  0.65129000  0.60581000  0.00000000
H        H    0.52370000  0.65129000  0.39419000  0.00000000
H        H    0.47630000  0.34871000  0.39419000  0.00000000
H        H    0.51829000  0.22399000  0.55241000  0.00000000
H        H    0.48171000  0.77601000  0.55241000  0.00000000
H        H    0.51829000  0.77601000  0.44759000  0.00000000
H        H    0.48171000  0.22399000  0.44759000  0.00000000
H        H    0.57729000  0.14159000  0.60750000  0.00000000
H        H    0.42271000  0.85841000  0.60750000  0.00000000
H        H    0.57729000  0.85841000  0.39250000  0.00000000
H        H    0.42271000  0.14159000  0.39250000  0.00000000
