data_ZIF-97

_cell_length_a  28.43190000
_cell_length_b  28.43190000
_cell_length_c  28.43190000
_cell_angle_alpha  90.00000000
_cell_angle_beta  90.00000000
_cell_angle_gamma  90.00000000


_symmetry_space_group_name_Hall ' P 1'
_symmetry_space_group_name_H-M  'P 1'
_symmetry_Int_Tables_number     1

loop_
_atom_site_label
_atom_site_type_symbol
_atom_site_fract_x
_atom_site_fract_y
_atom_site_fract_z
_atom_site_charge
O        O    0.90925000  0.60911000  0.45239000  0.00000000
O        O    0.40925000  0.89089000  0.04761000  0.00000000
O        O    0.95239000  0.59075000  0.89089000  0.00000000
O        O    0.60911000  0.90925000  0.54761000  0.00000000
O        O    0.95239000  0.10911000  0.59075000  0.00000000
O        O    0.45239000  0.60911000  0.09075000  0.00000000
O        O    0.54761000  0.09075000  0.60911000  0.00000000
O        O    0.59075000  0.10911000  0.04761000  0.00000000
O        O    0.54761000  0.39089000  0.09075000  0.00000000
O        O    0.95239000  0.89089000  0.40925000  0.00000000
O        O    0.39089000  0.09075000  0.54761000  0.00000000
O        O    0.89089000  0.04761000  0.40925000  0.00000000
O        O    0.89089000  0.40925000  0.95239000  0.00000000
O        O    0.39089000  0.54761000  0.90925000  0.00000000
O        O    0.04761000  0.40925000  0.89089000  0.00000000
O        O    0.39089000  0.90925000  0.45239000  0.00000000
O        O    0.09075000  0.54761000  0.39089000  0.00000000
O        O    0.59075000  0.95239000  0.10911000  0.00000000
O        O    0.89089000  0.59075000  0.04761000  0.00000000
O        O    0.59075000  0.89089000  0.95239000  0.00000000
O        O    0.40925000  0.95239000  0.89089000  0.00000000
O        O    0.10911000  0.59075000  0.95239000  0.00000000
O        O    0.45239000  0.39089000  0.90925000  0.00000000
O        O    0.90925000  0.54761000  0.60911000  0.00000000
O        O    0.89089000  0.95239000  0.59075000  0.00000000
O        O    0.09075000  0.60911000  0.54761000  0.00000000
O        O    0.59075000  0.04761000  0.89089000  0.00000000
O        O    0.10911000  0.95239000  0.40925000  0.00000000
O        O    0.09075000  0.39089000  0.45239000  0.00000000
O        O    0.09075000  0.45239000  0.60911000  0.00000000
O        O    0.40925000  0.04761000  0.10911000  0.00000000
O        O    0.10911000  0.04761000  0.59075000  0.00000000
O        O    0.60911000  0.45239000  0.90925000  0.00000000
O        O    0.45239000  0.90925000  0.60911000  0.00000000
O        O    0.04761000  0.10911000  0.40925000  0.00000000
O        O    0.10911000  0.40925000  0.04761000  0.00000000
O        O    0.90925000  0.39089000  0.54761000  0.00000000
O        O    0.60911000  0.54761000  0.09075000  0.00000000
O        O    0.54761000  0.60911000  0.90925000  0.00000000
O        O    0.40925000  0.10911000  0.95239000  0.00000000
O        O    0.04761000  0.89089000  0.59075000  0.00000000
O        O    0.54761000  0.90925000  0.39089000  0.00000000
O        O    0.90925000  0.45239000  0.39089000  0.00000000
O        O    0.39089000  0.45239000  0.09075000  0.00000000
O        O    0.95239000  0.40925000  0.10911000  0.00000000
O        O    0.04761000  0.59075000  0.10911000  0.00000000
O        O    0.45239000  0.09075000  0.39089000  0.00000000
O        O    0.60911000  0.09075000  0.45239000  0.00000000
O        O    0.81578000  0.92813000  0.30401000  0.00000000
O        O    0.31578000  0.57187000  0.19599000  0.00000000
O        O    0.80401000  0.68422000  0.57187000  0.00000000
O        O    0.92813000  0.81578000  0.69599000  0.00000000
O        O    0.80401000  0.42813000  0.68422000  0.00000000
O        O    0.30401000  0.92813000  0.18422000  0.00000000
O        O    0.69599000  0.18422000  0.92813000  0.00000000
O        O    0.68422000  0.42813000  0.19599000  0.00000000
O        O    0.69599000  0.07187000  0.18422000  0.00000000
O        O    0.80401000  0.57187000  0.31578000  0.00000000
O        O    0.07187000  0.18422000  0.69599000  0.00000000
O        O    0.57187000  0.19599000  0.31578000  0.00000000
O        O    0.57187000  0.31578000  0.80401000  0.00000000
O        O    0.07187000  0.69599000  0.81578000  0.00000000
O        O    0.19599000  0.31578000  0.57187000  0.00000000
O        O    0.07187000  0.81578000  0.30401000  0.00000000
O        O    0.18422000  0.69599000  0.07187000  0.00000000
O        O    0.68422000  0.80401000  0.42813000  0.00000000
O        O    0.57187000  0.68422000  0.19599000  0.00000000
O        O    0.68422000  0.57187000  0.80401000  0.00000000
O        O    0.31578000  0.80401000  0.57187000  0.00000000
O        O    0.42813000  0.68422000  0.80401000  0.00000000
O        O    0.30401000  0.07187000  0.81578000  0.00000000
O        O    0.81578000  0.69599000  0.92813000  0.00000000
O        O    0.57187000  0.80401000  0.68422000  0.00000000
O        O    0.18422000  0.92813000  0.69599000  0.00000000
O        O    0.68422000  0.19599000  0.57187000  0.00000000
O        O    0.42813000  0.80401000  0.31578000  0.00000000
O        O    0.18422000  0.07187000  0.30401000  0.00000000
O        O    0.18422000  0.30401000  0.92813000  0.00000000
O        O    0.31578000  0.19599000  0.42813000  0.00000000
O        O    0.42813000  0.19599000  0.68422000  0.00000000
O        O    0.92813000  0.30401000  0.81578000  0.00000000
O        O    0.30401000  0.81578000  0.92813000  0.00000000
O        O    0.19599000  0.42813000  0.31578000  0.00000000
O        O    0.42813000  0.31578000  0.19599000  0.00000000
O        O    0.81578000  0.07187000  0.69599000  0.00000000
O        O    0.92813000  0.69599000  0.18422000  0.00000000
O        O    0.69599000  0.92813000  0.81578000  0.00000000
O        O    0.31578000  0.42813000  0.80401000  0.00000000
O        O    0.19599000  0.57187000  0.68422000  0.00000000
O        O    0.69599000  0.81578000  0.07187000  0.00000000
O        O    0.81578000  0.30401000  0.07187000  0.00000000
O        O    0.07187000  0.30401000  0.18422000  0.00000000
O        O    0.80401000  0.31578000  0.42813000  0.00000000
O        O    0.19599000  0.68422000  0.42813000  0.00000000
O        O    0.30401000  0.18422000  0.07187000  0.00000000
O        O    0.92813000  0.18422000  0.30401000  0.00000000
C        C    0.88114000  0.75337000  0.50121000  0.00000000
C        C    0.38114000  0.74663000  0.99879000  0.00000000
C        C    0.00121000  0.61886000  0.74663000  0.00000000
C        C    0.75337000  0.88114000  0.49879000  0.00000000
C        C    0.00121000  0.25337000  0.61886000  0.00000000
C        C    0.50121000  0.75337000  0.11886000  0.00000000
C        C    0.49879000  0.11886000  0.75337000  0.00000000
C        C    0.61886000  0.25337000  0.99879000  0.00000000
C        C    0.49879000  0.24663000  0.11886000  0.00000000
C        C    0.00121000  0.74663000  0.38114000  0.00000000
C        C    0.24663000  0.11886000  0.49879000  0.00000000
C        C    0.74663000  0.99879000  0.38114000  0.00000000
C        C    0.74663000  0.38114000  0.00121000  0.00000000
C        C    0.24663000  0.49879000  0.88114000  0.00000000
C        C    0.99879000  0.38114000  0.74663000  0.00000000
C        C    0.24663000  0.88114000  0.50121000  0.00000000
C        C    0.11886000  0.49879000  0.24663000  0.00000000
C        C    0.61886000  0.00121000  0.25337000  0.00000000
C        C    0.74663000  0.61886000  0.99879000  0.00000000
C        C    0.61886000  0.74663000  0.00121000  0.00000000
C        C    0.38114000  0.00121000  0.74663000  0.00000000
C        C    0.25337000  0.61886000  0.00121000  0.00000000
C        C    0.50121000  0.24663000  0.88114000  0.00000000
C        C    0.88114000  0.49879000  0.75337000  0.00000000
C        C    0.74663000  0.00121000  0.61886000  0.00000000
C        C    0.11886000  0.75337000  0.49879000  0.00000000
C        C    0.61886000  0.99879000  0.74663000  0.00000000
C        C    0.25337000  0.00121000  0.38114000  0.00000000
C        C    0.11886000  0.24663000  0.50121000  0.00000000
C        C    0.11886000  0.50121000  0.75337000  0.00000000
C        C    0.38114000  0.99879000  0.25337000  0.00000000
C        C    0.25337000  0.99879000  0.61886000  0.00000000
C        C    0.75337000  0.50121000  0.88114000  0.00000000
C        C    0.50121000  0.88114000  0.75337000  0.00000000
C        C    0.99879000  0.25337000  0.38114000  0.00000000
C        C    0.25337000  0.38114000  0.99879000  0.00000000
C        C    0.88114000  0.24663000  0.49879000  0.00000000
C        C    0.75337000  0.49879000  0.11886000  0.00000000
C        C    0.49879000  0.75337000  0.88114000  0.00000000
C        C    0.38114000  0.25337000  0.00121000  0.00000000
C        C    0.99879000  0.74663000  0.61886000  0.00000000
C        C    0.49879000  0.88114000  0.24663000  0.00000000
C        C    0.88114000  0.50121000  0.24663000  0.00000000
C        C    0.24663000  0.50121000  0.11886000  0.00000000
C        C    0.00121000  0.38114000  0.25337000  0.00000000
C        C    0.99879000  0.61886000  0.25337000  0.00000000
C        C    0.50121000  0.11886000  0.24663000  0.00000000
C        C    0.75337000  0.11886000  0.50121000  0.00000000
C        C    0.91001000  0.68784000  0.47867000  0.00000000
C        C    0.41001000  0.81216000  0.02133000  0.00000000
C        C    0.97867000  0.58999000  0.81216000  0.00000000
C        C    0.68784000  0.91001000  0.52133000  0.00000000
C        C    0.97867000  0.18784000  0.58999000  0.00000000
C        C    0.47867000  0.68784000  0.08999000  0.00000000
C        C    0.52133000  0.08999000  0.68784000  0.00000000
C        C    0.58999000  0.18784000  0.02133000  0.00000000
C        C    0.52133000  0.31216000  0.08999000  0.00000000
C        C    0.97867000  0.81216000  0.41001000  0.00000000
C        C    0.31216000  0.08999000  0.52133000  0.00000000
C        C    0.81216000  0.02133000  0.41001000  0.00000000
C        C    0.81216000  0.41001000  0.97867000  0.00000000
C        C    0.31216000  0.52133000  0.91001000  0.00000000
C        C    0.02133000  0.41001000  0.81216000  0.00000000
C        C    0.31216000  0.91001000  0.47867000  0.00000000
C        C    0.08999000  0.52133000  0.31216000  0.00000000
C        C    0.58999000  0.97867000  0.18784000  0.00000000
C        C    0.81216000  0.58999000  0.02133000  0.00000000
C        C    0.58999000  0.81216000  0.97867000  0.00000000
C        C    0.41001000  0.97867000  0.81216000  0.00000000
C        C    0.18784000  0.58999000  0.97867000  0.00000000
C        C    0.47867000  0.31216000  0.91001000  0.00000000
C        C    0.91001000  0.52133000  0.68784000  0.00000000
C        C    0.81216000  0.97867000  0.58999000  0.00000000
C        C    0.08999000  0.68784000  0.52133000  0.00000000
C        C    0.58999000  0.02133000  0.81216000  0.00000000
C        C    0.18784000  0.97867000  0.41001000  0.00000000
C        C    0.08999000  0.31216000  0.47867000  0.00000000
C        C    0.08999000  0.47867000  0.68784000  0.00000000
C        C    0.41001000  0.02133000  0.18784000  0.00000000
C        C    0.18784000  0.02133000  0.58999000  0.00000000
C        C    0.68784000  0.47867000  0.91001000  0.00000000
C        C    0.47867000  0.91001000  0.68784000  0.00000000
C        C    0.02133000  0.18784000  0.41001000  0.00000000
C        C    0.18784000  0.41001000  0.02133000  0.00000000
C        C    0.91001000  0.31216000  0.52133000  0.00000000
C        C    0.68784000  0.52133000  0.08999000  0.00000000
C        C    0.52133000  0.68784000  0.91001000  0.00000000
C        C    0.41001000  0.18784000  0.97867000  0.00000000
C        C    0.02133000  0.81216000  0.58999000  0.00000000
C        C    0.52133000  0.91001000  0.31216000  0.00000000
C        C    0.91001000  0.47867000  0.31216000  0.00000000
C        C    0.31216000  0.47867000  0.08999000  0.00000000
C        C    0.97867000  0.41001000  0.18784000  0.00000000
C        C    0.02133000  0.58999000  0.18784000  0.00000000
C        C    0.47867000  0.08999000  0.31216000  0.00000000
C        C    0.68784000  0.08999000  0.47867000  0.00000000
C        C    0.93453000  0.65132000  0.44983000  0.00000000
C        C    0.43453000  0.84868000  0.05017000  0.00000000
C        C    0.94983000  0.56547000  0.84868000  0.00000000
C        C    0.65132000  0.93453000  0.55017000  0.00000000
C        C    0.94983000  0.15132000  0.56547000  0.00000000
C        C    0.44983000  0.65132000  0.06547000  0.00000000
C        C    0.55017000  0.06547000  0.65132000  0.00000000
C        C    0.56547000  0.15132000  0.05017000  0.00000000
C        C    0.55017000  0.34868000  0.06547000  0.00000000
C        C    0.94983000  0.84868000  0.43453000  0.00000000
C        C    0.34868000  0.06547000  0.55017000  0.00000000
C        C    0.84868000  0.05017000  0.43453000  0.00000000
C        C    0.84868000  0.43453000  0.94983000  0.00000000
C        C    0.34868000  0.55017000  0.93453000  0.00000000
C        C    0.05017000  0.43453000  0.84868000  0.00000000
C        C    0.34868000  0.93453000  0.44983000  0.00000000
C        C    0.06547000  0.55017000  0.34868000  0.00000000
C        C    0.56547000  0.94983000  0.15132000  0.00000000
C        C    0.84868000  0.56547000  0.05017000  0.00000000
C        C    0.56547000  0.84868000  0.94983000  0.00000000
C        C    0.43453000  0.94983000  0.84868000  0.00000000
C        C    0.15132000  0.56547000  0.94983000  0.00000000
C        C    0.44983000  0.34868000  0.93453000  0.00000000
C        C    0.93453000  0.55017000  0.65132000  0.00000000
C        C    0.84868000  0.94983000  0.56547000  0.00000000
C        C    0.06547000  0.65132000  0.55017000  0.00000000
C        C    0.56547000  0.05017000  0.84868000  0.00000000
C        C    0.15132000  0.94983000  0.43453000  0.00000000
C        C    0.06547000  0.34868000  0.44983000  0.00000000
C        C    0.06547000  0.44983000  0.65132000  0.00000000
C        C    0.43453000  0.05017000  0.15132000  0.00000000
C        C    0.15132000  0.05017000  0.56547000  0.00000000
C        C    0.65132000  0.44983000  0.93453000  0.00000000
C        C    0.44983000  0.93453000  0.65132000  0.00000000
C        C    0.05017000  0.15132000  0.43453000  0.00000000
C        C    0.15132000  0.43453000  0.05017000  0.00000000
C        C    0.93453000  0.34868000  0.55017000  0.00000000
C        C    0.65132000  0.55017000  0.06547000  0.00000000
C        C    0.55017000  0.65132000  0.93453000  0.00000000
C        C    0.43453000  0.15132000  0.94983000  0.00000000
C        C    0.05017000  0.84868000  0.56547000  0.00000000
C        C    0.55017000  0.93453000  0.34868000  0.00000000
C        C    0.93453000  0.44983000  0.34868000  0.00000000
C        C    0.34868000  0.44983000  0.06547000  0.00000000
C        C    0.94983000  0.43453000  0.15132000  0.00000000
C        C    0.05017000  0.56547000  0.15132000  0.00000000
C        C    0.44983000  0.06547000  0.34868000  0.00000000
C        C    0.65132000  0.06547000  0.44983000  0.00000000
C        C    0.89292000  0.68785000  0.52691000  0.00000000
C        C    0.39292000  0.81215000  0.97309000  0.00000000
C        C    0.02691000  0.60708000  0.81215000  0.00000000
C        C    0.68785000  0.89292000  0.47309000  0.00000000
C        C    0.02691000  0.18785000  0.60708000  0.00000000
C        C    0.52691000  0.68785000  0.10708000  0.00000000
C        C    0.47309000  0.10708000  0.68785000  0.00000000
C        C    0.60708000  0.18785000  0.97309000  0.00000000
C        C    0.47309000  0.31215000  0.10708000  0.00000000
C        C    0.02691000  0.81215000  0.39292000  0.00000000
C        C    0.31215000  0.10708000  0.47309000  0.00000000
C        C    0.81215000  0.97309000  0.39292000  0.00000000
C        C    0.81215000  0.39292000  0.02691000  0.00000000
C        C    0.31215000  0.47309000  0.89292000  0.00000000
C        C    0.97309000  0.39292000  0.81215000  0.00000000
C        C    0.31215000  0.89292000  0.52691000  0.00000000
C        C    0.10708000  0.47309000  0.31215000  0.00000000
C        C    0.60708000  0.02691000  0.18785000  0.00000000
C        C    0.81215000  0.60708000  0.97309000  0.00000000
C        C    0.60708000  0.81215000  0.02691000  0.00000000
C        C    0.39292000  0.02691000  0.81215000  0.00000000
C        C    0.18785000  0.60708000  0.02691000  0.00000000
C        C    0.52691000  0.31215000  0.89292000  0.00000000
C        C    0.89292000  0.47309000  0.68785000  0.00000000
C        C    0.81215000  0.02691000  0.60708000  0.00000000
C        C    0.10708000  0.68785000  0.47309000  0.00000000
C        C    0.60708000  0.97309000  0.81215000  0.00000000
C        C    0.18785000  0.02691000  0.39292000  0.00000000
C        C    0.10708000  0.31215000  0.52691000  0.00000000
C        C    0.10708000  0.52691000  0.68785000  0.00000000
C        C    0.39292000  0.97309000  0.18785000  0.00000000
C        C    0.18785000  0.97309000  0.60708000  0.00000000
C        C    0.68785000  0.52691000  0.89292000  0.00000000
C        C    0.52691000  0.89292000  0.68785000  0.00000000
C        C    0.97309000  0.18785000  0.39292000  0.00000000
C        C    0.18785000  0.39292000  0.97309000  0.00000000
C        C    0.89292000  0.31215000  0.47309000  0.00000000
C        C    0.68785000  0.47309000  0.10708000  0.00000000
C        C    0.47309000  0.68785000  0.89292000  0.00000000
C        C    0.39292000  0.18785000  0.02691000  0.00000000
C        C    0.97309000  0.81215000  0.60708000  0.00000000
C        C    0.47309000  0.89292000  0.31215000  0.00000000
C        C    0.89292000  0.52691000  0.31215000  0.00000000
C        C    0.31215000  0.52691000  0.10708000  0.00000000
C        C    0.02691000  0.39292000  0.18785000  0.00000000
C        C    0.97309000  0.60708000  0.18785000  0.00000000
C        C    0.52691000  0.10708000  0.31215000  0.00000000
C        C    0.68785000  0.10708000  0.52691000  0.00000000
C        C    0.92471000  0.65030000  0.55927000  0.00000000
C        C    0.42471000  0.84970000  0.94073000  0.00000000
C        C    0.05927000  0.57529000  0.84970000  0.00000000
C        C    0.65030000  0.92471000  0.44073000  0.00000000
C        C    0.05927000  0.15030000  0.57529000  0.00000000
C        C    0.55927000  0.65030000  0.07529000  0.00000000
C        C    0.44073000  0.07529000  0.65030000  0.00000000
C        C    0.57529000  0.15030000  0.94073000  0.00000000
C        C    0.44073000  0.34970000  0.07529000  0.00000000
C        C    0.05927000  0.84970000  0.42471000  0.00000000
C        C    0.34970000  0.07529000  0.44073000  0.00000000
C        C    0.84970000  0.94073000  0.42471000  0.00000000
C        C    0.84970000  0.42471000  0.05927000  0.00000000
C        C    0.34970000  0.44073000  0.92471000  0.00000000
C        C    0.94073000  0.42471000  0.84970000  0.00000000
C        C    0.34970000  0.92471000  0.55927000  0.00000000
C        C    0.07529000  0.44073000  0.34970000  0.00000000
C        C    0.57529000  0.05927000  0.15030000  0.00000000
C        C    0.84970000  0.57529000  0.94073000  0.00000000
C        C    0.57529000  0.84970000  0.05927000  0.00000000
C        C    0.42471000  0.05927000  0.84970000  0.00000000
C        C    0.15030000  0.57529000  0.05927000  0.00000000
C        C    0.55927000  0.34970000  0.92471000  0.00000000
C        C    0.92471000  0.44073000  0.65030000  0.00000000
C        C    0.84970000  0.05927000  0.57529000  0.00000000
C        C    0.07529000  0.65030000  0.44073000  0.00000000
C        C    0.57529000  0.94073000  0.84970000  0.00000000
C        C    0.15030000  0.05927000  0.42471000  0.00000000
C        C    0.07529000  0.34970000  0.55927000  0.00000000
C        C    0.07529000  0.55927000  0.65030000  0.00000000
C        C    0.42471000  0.94073000  0.15030000  0.00000000
C        C    0.15030000  0.94073000  0.57529000  0.00000000
C        C    0.65030000  0.55927000  0.92471000  0.00000000
C        C    0.55927000  0.92471000  0.65030000  0.00000000
C        C    0.94073000  0.15030000  0.42471000  0.00000000
C        C    0.15030000  0.42471000  0.94073000  0.00000000
C        C    0.92471000  0.34970000  0.44073000  0.00000000
C        C    0.65030000  0.44073000  0.07529000  0.00000000
C        C    0.44073000  0.65030000  0.92471000  0.00000000
C        C    0.42471000  0.15030000  0.05927000  0.00000000
C        C    0.94073000  0.84970000  0.57529000  0.00000000
C        C    0.44073000  0.92471000  0.34970000  0.00000000
C        C    0.92471000  0.55927000  0.34970000  0.00000000
C        C    0.34970000  0.55927000  0.07529000  0.00000000
C        C    0.05927000  0.42471000  0.15030000  0.00000000
C        C    0.94073000  0.57529000  0.15030000  0.00000000
C        C    0.55927000  0.07529000  0.34970000  0.00000000
C        C    0.65030000  0.07529000  0.55927000  0.00000000
C        C    0.82270000  0.82153000  0.40658000  0.00000000
C        C    0.32270000  0.67847000  0.09342000  0.00000000
C        C    0.90658000  0.67730000  0.67847000  0.00000000
C        C    0.82153000  0.82270000  0.59342000  0.00000000
C        C    0.90658000  0.32153000  0.67730000  0.00000000
C        C    0.40658000  0.82153000  0.17730000  0.00000000
C        C    0.59342000  0.17730000  0.82153000  0.00000000
C        C    0.67730000  0.32153000  0.09342000  0.00000000
C        C    0.59342000  0.17847000  0.17730000  0.00000000
C        C    0.90658000  0.67847000  0.32270000  0.00000000
C        C    0.17847000  0.17730000  0.59342000  0.00000000
C        C    0.67847000  0.09342000  0.32270000  0.00000000
C        C    0.67847000  0.32270000  0.90658000  0.00000000
C        C    0.17847000  0.59342000  0.82270000  0.00000000
C        C    0.09342000  0.32270000  0.67847000  0.00000000
C        C    0.17847000  0.82270000  0.40658000  0.00000000
C        C    0.17730000  0.59342000  0.17847000  0.00000000
C        C    0.67730000  0.90658000  0.32153000  0.00000000
C        C    0.67847000  0.67730000  0.09342000  0.00000000
C        C    0.67730000  0.67847000  0.90658000  0.00000000
C        C    0.32270000  0.90658000  0.67847000  0.00000000
C        C    0.32153000  0.67730000  0.90658000  0.00000000
C        C    0.40658000  0.17847000  0.82270000  0.00000000
C        C    0.82270000  0.59342000  0.82153000  0.00000000
C        C    0.67847000  0.90658000  0.67730000  0.00000000
C        C    0.17730000  0.82153000  0.59342000  0.00000000
C        C    0.67730000  0.09342000  0.67847000  0.00000000
C        C    0.32153000  0.90658000  0.32270000  0.00000000
C        C    0.17730000  0.17847000  0.40658000  0.00000000
C        C    0.17730000  0.40658000  0.82153000  0.00000000
C        C    0.32270000  0.09342000  0.32153000  0.00000000
C        C    0.32153000  0.09342000  0.67730000  0.00000000
C        C    0.82153000  0.40658000  0.82270000  0.00000000
C        C    0.40658000  0.82270000  0.82153000  0.00000000
C        C    0.09342000  0.32153000  0.32270000  0.00000000
C        C    0.32153000  0.32270000  0.09342000  0.00000000
C        C    0.82270000  0.17847000  0.59342000  0.00000000
C        C    0.82153000  0.59342000  0.17730000  0.00000000
C        C    0.59342000  0.82153000  0.82270000  0.00000000
C        C    0.32270000  0.32153000  0.90658000  0.00000000
C        C    0.09342000  0.67847000  0.67730000  0.00000000
C        C    0.59342000  0.82270000  0.17847000  0.00000000
C        C    0.82270000  0.40658000  0.17847000  0.00000000
C        C    0.17847000  0.40658000  0.17730000  0.00000000
C        C    0.90658000  0.32270000  0.32153000  0.00000000
C        C    0.09342000  0.67730000  0.32153000  0.00000000
C        C    0.40658000  0.17730000  0.17847000  0.00000000
C        C    0.82153000  0.17730000  0.40658000  0.00000000
C        C    0.85648000  0.81895000  0.33949000  0.00000000
C        C    0.35648000  0.68105000  0.16051000  0.00000000
C        C    0.83949000  0.64352000  0.68105000  0.00000000
C        C    0.81895000  0.85648000  0.66051000  0.00000000
C        C    0.83949000  0.31895000  0.64352000  0.00000000
C        C    0.33949000  0.81895000  0.14352000  0.00000000
C        C    0.66051000  0.14352000  0.81895000  0.00000000
C        C    0.64352000  0.31895000  0.16051000  0.00000000
C        C    0.66051000  0.18105000  0.14352000  0.00000000
C        C    0.83949000  0.68105000  0.35648000  0.00000000
C        C    0.18105000  0.14352000  0.66051000  0.00000000
C        C    0.68105000  0.16051000  0.35648000  0.00000000
C        C    0.68105000  0.35648000  0.83949000  0.00000000
C        C    0.18105000  0.66051000  0.85648000  0.00000000
C        C    0.16051000  0.35648000  0.68105000  0.00000000
C        C    0.18105000  0.85648000  0.33949000  0.00000000
C        C    0.14352000  0.66051000  0.18105000  0.00000000
C        C    0.64352000  0.83949000  0.31895000  0.00000000
C        C    0.68105000  0.64352000  0.16051000  0.00000000
C        C    0.64352000  0.68105000  0.83949000  0.00000000
C        C    0.35648000  0.83949000  0.68105000  0.00000000
C        C    0.31895000  0.64352000  0.83949000  0.00000000
C        C    0.33949000  0.18105000  0.85648000  0.00000000
C        C    0.85648000  0.66051000  0.81895000  0.00000000
C        C    0.68105000  0.83949000  0.64352000  0.00000000
C        C    0.14352000  0.81895000  0.66051000  0.00000000
C        C    0.64352000  0.16051000  0.68105000  0.00000000
C        C    0.31895000  0.83949000  0.35648000  0.00000000
C        C    0.14352000  0.18105000  0.33949000  0.00000000
C        C    0.14352000  0.33949000  0.81895000  0.00000000
C        C    0.35648000  0.16051000  0.31895000  0.00000000
C        C    0.31895000  0.16051000  0.64352000  0.00000000
C        C    0.81895000  0.33949000  0.85648000  0.00000000
C        C    0.33949000  0.85648000  0.81895000  0.00000000
C        C    0.16051000  0.31895000  0.35648000  0.00000000
C        C    0.31895000  0.35648000  0.16051000  0.00000000
C        C    0.85648000  0.18105000  0.66051000  0.00000000
C        C    0.81895000  0.66051000  0.14352000  0.00000000
C        C    0.66051000  0.81895000  0.85648000  0.00000000
C        C    0.35648000  0.31895000  0.83949000  0.00000000
C        C    0.16051000  0.68105000  0.64352000  0.00000000
C        C    0.66051000  0.85648000  0.18105000  0.00000000
C        C    0.85648000  0.33949000  0.18105000  0.00000000
C        C    0.18105000  0.33949000  0.14352000  0.00000000
C        C    0.83949000  0.35648000  0.31895000  0.00000000
C        C    0.16051000  0.64352000  0.31895000  0.00000000
C        C    0.33949000  0.14352000  0.18105000  0.00000000
C        C    0.81895000  0.14352000  0.33949000  0.00000000
C        C    0.88876000  0.80555000  0.30018000  0.00000000
C        C    0.38876000  0.69445000  0.19982000  0.00000000
C        C    0.80018000  0.61124000  0.69445000  0.00000000
C        C    0.80555000  0.88876000  0.69982000  0.00000000
C        C    0.80018000  0.30555000  0.61124000  0.00000000
C        C    0.30018000  0.80555000  0.11124000  0.00000000
C        C    0.69982000  0.11124000  0.80555000  0.00000000
C        C    0.61124000  0.30555000  0.19982000  0.00000000
C        C    0.69982000  0.19445000  0.11124000  0.00000000
C        C    0.80018000  0.69445000  0.38876000  0.00000000
C        C    0.19445000  0.11124000  0.69982000  0.00000000
C        C    0.69445000  0.19982000  0.38876000  0.00000000
C        C    0.69445000  0.38876000  0.80018000  0.00000000
C        C    0.19445000  0.69982000  0.88876000  0.00000000
C        C    0.19982000  0.38876000  0.69445000  0.00000000
C        C    0.19445000  0.88876000  0.30018000  0.00000000
C        C    0.11124000  0.69982000  0.19445000  0.00000000
C        C    0.61124000  0.80018000  0.30555000  0.00000000
C        C    0.69445000  0.61124000  0.19982000  0.00000000
C        C    0.61124000  0.69445000  0.80018000  0.00000000
C        C    0.38876000  0.80018000  0.69445000  0.00000000
C        C    0.30555000  0.61124000  0.80018000  0.00000000
C        C    0.30018000  0.19445000  0.88876000  0.00000000
C        C    0.88876000  0.69982000  0.80555000  0.00000000
C        C    0.69445000  0.80018000  0.61124000  0.00000000
C        C    0.11124000  0.80555000  0.69982000  0.00000000
C        C    0.61124000  0.19982000  0.69445000  0.00000000
C        C    0.30555000  0.80018000  0.38876000  0.00000000
C        C    0.11124000  0.19445000  0.30018000  0.00000000
C        C    0.11124000  0.30018000  0.80555000  0.00000000
C        C    0.38876000  0.19982000  0.30555000  0.00000000
C        C    0.30555000  0.19982000  0.61124000  0.00000000
C        C    0.80555000  0.30018000  0.88876000  0.00000000
C        C    0.30018000  0.88876000  0.80555000  0.00000000
C        C    0.19982000  0.30555000  0.38876000  0.00000000
C        C    0.30555000  0.38876000  0.19982000  0.00000000
C        C    0.88876000  0.19445000  0.69982000  0.00000000
C        C    0.80555000  0.69982000  0.11124000  0.00000000
C        C    0.69982000  0.80555000  0.88876000  0.00000000
C        C    0.38876000  0.30555000  0.80018000  0.00000000
C        C    0.19982000  0.69445000  0.61124000  0.00000000
C        C    0.69982000  0.88876000  0.19445000  0.00000000
C        C    0.88876000  0.30018000  0.19445000  0.00000000
C        C    0.19445000  0.30018000  0.11124000  0.00000000
C        C    0.80018000  0.38876000  0.30555000  0.00000000
C        C    0.19982000  0.61124000  0.30555000  0.00000000
C        C    0.30018000  0.11124000  0.19445000  0.00000000
C        C    0.80555000  0.11124000  0.30018000  0.00000000
C        C    0.82128000  0.85213000  0.33785000  0.00000000
C        C    0.32128000  0.64787000  0.16215000  0.00000000
C        C    0.83785000  0.67872000  0.64787000  0.00000000
C        C    0.85213000  0.82128000  0.66215000  0.00000000
C        C    0.83785000  0.35213000  0.67872000  0.00000000
C        C    0.33785000  0.85213000  0.17872000  0.00000000
C        C    0.66215000  0.17872000  0.85213000  0.00000000
C        C    0.67872000  0.35213000  0.16215000  0.00000000
C        C    0.66215000  0.14787000  0.17872000  0.00000000
C        C    0.83785000  0.64787000  0.32128000  0.00000000
C        C    0.14787000  0.17872000  0.66215000  0.00000000
C        C    0.64787000  0.16215000  0.32128000  0.00000000
C        C    0.64787000  0.32128000  0.83785000  0.00000000
C        C    0.14787000  0.66215000  0.82128000  0.00000000
C        C    0.16215000  0.32128000  0.64787000  0.00000000
C        C    0.14787000  0.82128000  0.33785000  0.00000000
C        C    0.17872000  0.66215000  0.14787000  0.00000000
C        C    0.67872000  0.83785000  0.35213000  0.00000000
C        C    0.64787000  0.67872000  0.16215000  0.00000000
C        C    0.67872000  0.64787000  0.83785000  0.00000000
C        C    0.32128000  0.83785000  0.64787000  0.00000000
C        C    0.35213000  0.67872000  0.83785000  0.00000000
C        C    0.33785000  0.14787000  0.82128000  0.00000000
C        C    0.82128000  0.66215000  0.85213000  0.00000000
C        C    0.64787000  0.83785000  0.67872000  0.00000000
C        C    0.17872000  0.85213000  0.66215000  0.00000000
C        C    0.67872000  0.16215000  0.64787000  0.00000000
C        C    0.35213000  0.83785000  0.32128000  0.00000000
C        C    0.17872000  0.14787000  0.33785000  0.00000000
C        C    0.17872000  0.33785000  0.85213000  0.00000000
C        C    0.32128000  0.16215000  0.35213000  0.00000000
C        C    0.35213000  0.16215000  0.67872000  0.00000000
C        C    0.85213000  0.33785000  0.82128000  0.00000000
C        C    0.33785000  0.82128000  0.85213000  0.00000000
C        C    0.16215000  0.35213000  0.32128000  0.00000000
C        C    0.35213000  0.32128000  0.16215000  0.00000000
C        C    0.82128000  0.14787000  0.66215000  0.00000000
C        C    0.85213000  0.66215000  0.17872000  0.00000000
C        C    0.66215000  0.85213000  0.82128000  0.00000000
C        C    0.32128000  0.35213000  0.83785000  0.00000000
C        C    0.16215000  0.64787000  0.67872000  0.00000000
C        C    0.66215000  0.82128000  0.14787000  0.00000000
C        C    0.82128000  0.33785000  0.14787000  0.00000000
C        C    0.14787000  0.33785000  0.17872000  0.00000000
C        C    0.83785000  0.32128000  0.35213000  0.00000000
C        C    0.16215000  0.67872000  0.35213000  0.00000000
C        C    0.33785000  0.17872000  0.14787000  0.00000000
C        C    0.85213000  0.17872000  0.33785000  0.00000000
C        C    0.80654000  0.88052000  0.29593000  0.00000000
C        C    0.30654000  0.61948000  0.20407000  0.00000000
C        C    0.79593000  0.69346000  0.61948000  0.00000000
C        C    0.88052000  0.80654000  0.70407000  0.00000000
C        C    0.79593000  0.38052000  0.69346000  0.00000000
C        C    0.29593000  0.88052000  0.19346000  0.00000000
C        C    0.70407000  0.19346000  0.88052000  0.00000000
C        C    0.69346000  0.38052000  0.20407000  0.00000000
C        C    0.70407000  0.11948000  0.19346000  0.00000000
C        C    0.79593000  0.61948000  0.30654000  0.00000000
C        C    0.11948000  0.19346000  0.70407000  0.00000000
C        C    0.61948000  0.20407000  0.30654000  0.00000000
C        C    0.61948000  0.30654000  0.79593000  0.00000000
C        C    0.11948000  0.70407000  0.80654000  0.00000000
C        C    0.20407000  0.30654000  0.61948000  0.00000000
C        C    0.11948000  0.80654000  0.29593000  0.00000000
C        C    0.19346000  0.70407000  0.11948000  0.00000000
C        C    0.69346000  0.79593000  0.38052000  0.00000000
C        C    0.61948000  0.69346000  0.20407000  0.00000000
C        C    0.69346000  0.61948000  0.79593000  0.00000000
C        C    0.30654000  0.79593000  0.61948000  0.00000000
C        C    0.38052000  0.69346000  0.79593000  0.00000000
C        C    0.29593000  0.11948000  0.80654000  0.00000000
C        C    0.80654000  0.70407000  0.88052000  0.00000000
C        C    0.61948000  0.79593000  0.69346000  0.00000000
C        C    0.19346000  0.88052000  0.70407000  0.00000000
C        C    0.69346000  0.20407000  0.61948000  0.00000000
C        C    0.38052000  0.79593000  0.30654000  0.00000000
C        C    0.19346000  0.11948000  0.29593000  0.00000000
C        C    0.19346000  0.29593000  0.88052000  0.00000000
C        C    0.30654000  0.20407000  0.38052000  0.00000000
C        C    0.38052000  0.20407000  0.69346000  0.00000000
C        C    0.88052000  0.29593000  0.80654000  0.00000000
C        C    0.29593000  0.80654000  0.88052000  0.00000000
C        C    0.20407000  0.38052000  0.30654000  0.00000000
C        C    0.38052000  0.30654000  0.20407000  0.00000000
C        C    0.80654000  0.11948000  0.70407000  0.00000000
C        C    0.88052000  0.70407000  0.19346000  0.00000000
C        C    0.70407000  0.88052000  0.80654000  0.00000000
C        C    0.30654000  0.38052000  0.79593000  0.00000000
C        C    0.20407000  0.61948000  0.69346000  0.00000000
C        C    0.70407000  0.80654000  0.11948000  0.00000000
C        C    0.80654000  0.29593000  0.11948000  0.00000000
C        C    0.11948000  0.29593000  0.19346000  0.00000000
C        C    0.79593000  0.30654000  0.38052000  0.00000000
C        C    0.20407000  0.69346000  0.38052000  0.00000000
C        C    0.29593000  0.19346000  0.11948000  0.00000000
C        C    0.88052000  0.19346000  0.29593000  0.00000000
N        N    0.90716000  0.72884000  0.46217000  0.00000000
N        N    0.40716000  0.77116000  0.03783000  0.00000000
N        N    0.96217000  0.59284000  0.77116000  0.00000000
N        N    0.72884000  0.90716000  0.53783000  0.00000000
N        N    0.96217000  0.22884000  0.59284000  0.00000000
N        N    0.46217000  0.72884000  0.09284000  0.00000000
N        N    0.53783000  0.09284000  0.72884000  0.00000000
N        N    0.59284000  0.22884000  0.03783000  0.00000000
N        N    0.53783000  0.27116000  0.09284000  0.00000000
N        N    0.96217000  0.77116000  0.40716000  0.00000000
N        N    0.27116000  0.09284000  0.53783000  0.00000000
N        N    0.77116000  0.03783000  0.40716000  0.00000000
N        N    0.77116000  0.40716000  0.96217000  0.00000000
N        N    0.27116000  0.53783000  0.90716000  0.00000000
N        N    0.03783000  0.40716000  0.77116000  0.00000000
N        N    0.27116000  0.90716000  0.46217000  0.00000000
N        N    0.09284000  0.53783000  0.27116000  0.00000000
N        N    0.59284000  0.96217000  0.22884000  0.00000000
N        N    0.77116000  0.59284000  0.03783000  0.00000000
N        N    0.59284000  0.77116000  0.96217000  0.00000000
N        N    0.40716000  0.96217000  0.77116000  0.00000000
N        N    0.22884000  0.59284000  0.96217000  0.00000000
N        N    0.46217000  0.27116000  0.90716000  0.00000000
N        N    0.90716000  0.53783000  0.72884000  0.00000000
N        N    0.77116000  0.96217000  0.59284000  0.00000000
N        N    0.09284000  0.72884000  0.53783000  0.00000000
N        N    0.59284000  0.03783000  0.77116000  0.00000000
N        N    0.22884000  0.96217000  0.40716000  0.00000000
N        N    0.09284000  0.27116000  0.46217000  0.00000000
N        N    0.09284000  0.46217000  0.72884000  0.00000000
N        N    0.40716000  0.03783000  0.22884000  0.00000000
N        N    0.22884000  0.03783000  0.59284000  0.00000000
N        N    0.72884000  0.46217000  0.90716000  0.00000000
N        N    0.46217000  0.90716000  0.72884000  0.00000000
N        N    0.03783000  0.22884000  0.40716000  0.00000000
N        N    0.22884000  0.40716000  0.03783000  0.00000000
N        N    0.90716000  0.27116000  0.53783000  0.00000000
N        N    0.72884000  0.53783000  0.09284000  0.00000000
N        N    0.53783000  0.72884000  0.90716000  0.00000000
N        N    0.40716000  0.22884000  0.96217000  0.00000000
N        N    0.03783000  0.77116000  0.59284000  0.00000000
N        N    0.53783000  0.90716000  0.27116000  0.00000000
N        N    0.90716000  0.46217000  0.27116000  0.00000000
N        N    0.27116000  0.46217000  0.09284000  0.00000000
N        N    0.96217000  0.40716000  0.22884000  0.00000000
N        N    0.03783000  0.59284000  0.22884000  0.00000000
N        N    0.46217000  0.09284000  0.27116000  0.00000000
N        N    0.72884000  0.09284000  0.46217000  0.00000000
N        N    0.88939000  0.72918000  0.54140000  0.00000000
N        N    0.38939000  0.77082000  0.95860000  0.00000000
N        N    0.04140000  0.61061000  0.77082000  0.00000000
N        N    0.72918000  0.88939000  0.45860000  0.00000000
N        N    0.04140000  0.22918000  0.61061000  0.00000000
N        N    0.54140000  0.72918000  0.11061000  0.00000000
N        N    0.45860000  0.11061000  0.72918000  0.00000000
N        N    0.61061000  0.22918000  0.95860000  0.00000000
N        N    0.45860000  0.27082000  0.11061000  0.00000000
N        N    0.04140000  0.77082000  0.38939000  0.00000000
N        N    0.27082000  0.11061000  0.45860000  0.00000000
N        N    0.77082000  0.95860000  0.38939000  0.00000000
N        N    0.77082000  0.38939000  0.04140000  0.00000000
N        N    0.27082000  0.45860000  0.88939000  0.00000000
N        N    0.95860000  0.38939000  0.77082000  0.00000000
N        N    0.27082000  0.88939000  0.54140000  0.00000000
N        N    0.11061000  0.45860000  0.27082000  0.00000000
N        N    0.61061000  0.04140000  0.22918000  0.00000000
N        N    0.77082000  0.61061000  0.95860000  0.00000000
N        N    0.61061000  0.77082000  0.04140000  0.00000000
N        N    0.38939000  0.04140000  0.77082000  0.00000000
N        N    0.22918000  0.61061000  0.04140000  0.00000000
N        N    0.54140000  0.27082000  0.88939000  0.00000000
N        N    0.88939000  0.45860000  0.72918000  0.00000000
N        N    0.77082000  0.04140000  0.61061000  0.00000000
N        N    0.11061000  0.72918000  0.45860000  0.00000000
N        N    0.61061000  0.95860000  0.77082000  0.00000000
N        N    0.22918000  0.04140000  0.38939000  0.00000000
N        N    0.11061000  0.27082000  0.54140000  0.00000000
N        N    0.11061000  0.54140000  0.72918000  0.00000000
N        N    0.38939000  0.95860000  0.22918000  0.00000000
N        N    0.22918000  0.95860000  0.61061000  0.00000000
N        N    0.72918000  0.54140000  0.88939000  0.00000000
N        N    0.54140000  0.88939000  0.72918000  0.00000000
N        N    0.95860000  0.22918000  0.38939000  0.00000000
N        N    0.22918000  0.38939000  0.95860000  0.00000000
N        N    0.88939000  0.27082000  0.45860000  0.00000000
N        N    0.72918000  0.45860000  0.11061000  0.00000000
N        N    0.45860000  0.72918000  0.88939000  0.00000000
N        N    0.38939000  0.22918000  0.04140000  0.00000000
N        N    0.95860000  0.77082000  0.61061000  0.00000000
N        N    0.45860000  0.88939000  0.27082000  0.00000000
N        N    0.88939000  0.54140000  0.27082000  0.00000000
N        N    0.27082000  0.54140000  0.11061000  0.00000000
N        N    0.04140000  0.38939000  0.22918000  0.00000000
N        N    0.95860000  0.61061000  0.22918000  0.00000000
N        N    0.54140000  0.11061000  0.27082000  0.00000000
N        N    0.72918000  0.11061000  0.54140000  0.00000000
N        N    0.80032000  0.85420000  0.38028000  0.00000000
N        N    0.30032000  0.64580000  0.11972000  0.00000000
N        N    0.88028000  0.69968000  0.64580000  0.00000000
N        N    0.85420000  0.80032000  0.61972000  0.00000000
N        N    0.88028000  0.35420000  0.69968000  0.00000000
N        N    0.38028000  0.85420000  0.19968000  0.00000000
N        N    0.61972000  0.19968000  0.85420000  0.00000000
N        N    0.69968000  0.35420000  0.11972000  0.00000000
N        N    0.61972000  0.14580000  0.19968000  0.00000000
N        N    0.88028000  0.64580000  0.30032000  0.00000000
N        N    0.14580000  0.19968000  0.61972000  0.00000000
N        N    0.64580000  0.11972000  0.30032000  0.00000000
N        N    0.64580000  0.30032000  0.88028000  0.00000000
N        N    0.14580000  0.61972000  0.80032000  0.00000000
N        N    0.11972000  0.30032000  0.64580000  0.00000000
N        N    0.14580000  0.80032000  0.38028000  0.00000000
N        N    0.19968000  0.61972000  0.14580000  0.00000000
N        N    0.69968000  0.88028000  0.35420000  0.00000000
N        N    0.64580000  0.69968000  0.11972000  0.00000000
N        N    0.69968000  0.64580000  0.88028000  0.00000000
N        N    0.30032000  0.88028000  0.64580000  0.00000000
N        N    0.35420000  0.69968000  0.88028000  0.00000000
N        N    0.38028000  0.14580000  0.80032000  0.00000000
N        N    0.80032000  0.61972000  0.85420000  0.00000000
N        N    0.64580000  0.88028000  0.69968000  0.00000000
N        N    0.19968000  0.85420000  0.61972000  0.00000000
N        N    0.69968000  0.11972000  0.64580000  0.00000000
N        N    0.35420000  0.88028000  0.30032000  0.00000000
N        N    0.19968000  0.14580000  0.38028000  0.00000000
N        N    0.19968000  0.38028000  0.85420000  0.00000000
N        N    0.30032000  0.11972000  0.35420000  0.00000000
N        N    0.35420000  0.11972000  0.69968000  0.00000000
N        N    0.85420000  0.38028000  0.80032000  0.00000000
N        N    0.38028000  0.80032000  0.85420000  0.00000000
N        N    0.11972000  0.35420000  0.30032000  0.00000000
N        N    0.35420000  0.30032000  0.11972000  0.00000000
N        N    0.80032000  0.14580000  0.61972000  0.00000000
N        N    0.85420000  0.61972000  0.19968000  0.00000000
N        N    0.61972000  0.85420000  0.80032000  0.00000000
N        N    0.30032000  0.35420000  0.88028000  0.00000000
N        N    0.11972000  0.64580000  0.69968000  0.00000000
N        N    0.61972000  0.80032000  0.14580000  0.00000000
N        N    0.80032000  0.38028000  0.14580000  0.00000000
N        N    0.14580000  0.38028000  0.19968000  0.00000000
N        N    0.88028000  0.30032000  0.35420000  0.00000000
N        N    0.11972000  0.69968000  0.35420000  0.00000000
N        N    0.38028000  0.19968000  0.14580000  0.00000000
N        N    0.85420000  0.19968000  0.38028000  0.00000000
N        N    0.85747000  0.79964000  0.38266000  0.00000000
N        N    0.35747000  0.70036000  0.11734000  0.00000000
N        N    0.88266000  0.64253000  0.70036000  0.00000000
N        N    0.79964000  0.85747000  0.61734000  0.00000000
N        N    0.88266000  0.29964000  0.64253000  0.00000000
N        N    0.38266000  0.79964000  0.14253000  0.00000000
N        N    0.61734000  0.14253000  0.79964000  0.00000000
N        N    0.64253000  0.29964000  0.11734000  0.00000000
N        N    0.61734000  0.20036000  0.14253000  0.00000000
N        N    0.88266000  0.70036000  0.35747000  0.00000000
N        N    0.20036000  0.14253000  0.61734000  0.00000000
N        N    0.70036000  0.11734000  0.35747000  0.00000000
N        N    0.70036000  0.35747000  0.88266000  0.00000000
N        N    0.20036000  0.61734000  0.85747000  0.00000000
N        N    0.11734000  0.35747000  0.70036000  0.00000000
N        N    0.20036000  0.85747000  0.38266000  0.00000000
N        N    0.14253000  0.61734000  0.20036000  0.00000000
N        N    0.64253000  0.88266000  0.29964000  0.00000000
N        N    0.70036000  0.64253000  0.11734000  0.00000000
N        N    0.64253000  0.70036000  0.88266000  0.00000000
N        N    0.35747000  0.88266000  0.70036000  0.00000000
N        N    0.29964000  0.64253000  0.88266000  0.00000000
N        N    0.38266000  0.20036000  0.85747000  0.00000000
N        N    0.85747000  0.61734000  0.79964000  0.00000000
N        N    0.70036000  0.88266000  0.64253000  0.00000000
N        N    0.14253000  0.79964000  0.61734000  0.00000000
N        N    0.64253000  0.11734000  0.70036000  0.00000000
N        N    0.29964000  0.88266000  0.35747000  0.00000000
N        N    0.14253000  0.20036000  0.38266000  0.00000000
N        N    0.14253000  0.38266000  0.79964000  0.00000000
N        N    0.35747000  0.11734000  0.29964000  0.00000000
N        N    0.29964000  0.11734000  0.64253000  0.00000000
N        N    0.79964000  0.38266000  0.85747000  0.00000000
N        N    0.38266000  0.85747000  0.79964000  0.00000000
N        N    0.11734000  0.29964000  0.35747000  0.00000000
N        N    0.29964000  0.35747000  0.11734000  0.00000000
N        N    0.85747000  0.20036000  0.61734000  0.00000000
N        N    0.79964000  0.61734000  0.14253000  0.00000000
N        N    0.61734000  0.79964000  0.85747000  0.00000000
N        N    0.35747000  0.29964000  0.88266000  0.00000000
N        N    0.11734000  0.70036000  0.64253000  0.00000000
N        N    0.61734000  0.85747000  0.20036000  0.00000000
N        N    0.85747000  0.38266000  0.20036000  0.00000000
N        N    0.20036000  0.38266000  0.14253000  0.00000000
N        N    0.88266000  0.35747000  0.29964000  0.00000000
N        N    0.11734000  0.64253000  0.29964000  0.00000000
N        N    0.38266000  0.14253000  0.20036000  0.00000000
N        N    0.79964000  0.14253000  0.38266000  0.00000000
H        H    0.92616000  0.58240000  0.42948000  0.00000000
H        H    0.42616000  0.91760000  0.07052000  0.00000000
H        H    0.92948000  0.57384000  0.91760000  0.00000000
H        H    0.58240000  0.92616000  0.57052000  0.00000000
H        H    0.92948000  0.08240000  0.57384000  0.00000000
H        H    0.42948000  0.58240000  0.07384000  0.00000000
H        H    0.57052000  0.07384000  0.58240000  0.00000000
H        H    0.57384000  0.08240000  0.07052000  0.00000000
H        H    0.57052000  0.41760000  0.07384000  0.00000000
H        H    0.92948000  0.91760000  0.42616000  0.00000000
H        H    0.41760000  0.07384000  0.57052000  0.00000000
H        H    0.91760000  0.07052000  0.42616000  0.00000000
H        H    0.91760000  0.42616000  0.92948000  0.00000000
H        H    0.41760000  0.57052000  0.92616000  0.00000000
H        H    0.07052000  0.42616000  0.91760000  0.00000000
H        H    0.41760000  0.92616000  0.42948000  0.00000000
H        H    0.07384000  0.57052000  0.41760000  0.00000000
H        H    0.57384000  0.92948000  0.08240000  0.00000000
H        H    0.91760000  0.57384000  0.07052000  0.00000000
H        H    0.57384000  0.91760000  0.92948000  0.00000000
H        H    0.42616000  0.92948000  0.91760000  0.00000000
H        H    0.08240000  0.57384000  0.92948000  0.00000000
H        H    0.42948000  0.41760000  0.92616000  0.00000000
H        H    0.92616000  0.57052000  0.58240000  0.00000000
H        H    0.91760000  0.92948000  0.57384000  0.00000000
H        H    0.07384000  0.58240000  0.57052000  0.00000000
H        H    0.57384000  0.07052000  0.91760000  0.00000000
H        H    0.08240000  0.92948000  0.42616000  0.00000000
H        H    0.07384000  0.41760000  0.42948000  0.00000000
H        H    0.07384000  0.42948000  0.58240000  0.00000000
H        H    0.42616000  0.07052000  0.08240000  0.00000000
H        H    0.08240000  0.07052000  0.57384000  0.00000000
H        H    0.58240000  0.42948000  0.92616000  0.00000000
H        H    0.42948000  0.92616000  0.58240000  0.00000000
H        H    0.07052000  0.08240000  0.42616000  0.00000000
H        H    0.08240000  0.42616000  0.07052000  0.00000000
H        H    0.92616000  0.41760000  0.57052000  0.00000000
H        H    0.58240000  0.57052000  0.07384000  0.00000000
H        H    0.57052000  0.58240000  0.92616000  0.00000000
H        H    0.42616000  0.08240000  0.92948000  0.00000000
H        H    0.07052000  0.91760000  0.57384000  0.00000000
H        H    0.57052000  0.92616000  0.41760000  0.00000000
H        H    0.92616000  0.42948000  0.41760000  0.00000000
H        H    0.41760000  0.42948000  0.07384000  0.00000000
H        H    0.92948000  0.42616000  0.08240000  0.00000000
H        H    0.07052000  0.57384000  0.08240000  0.00000000
H        H    0.42948000  0.07384000  0.41760000  0.00000000
H        H    0.58240000  0.07384000  0.42948000  0.00000000
H        H    0.84425000  0.94010000  0.28013000  0.00000000
H        H    0.34425000  0.55990000  0.21987000  0.00000000
H        H    0.78013000  0.65575000  0.55990000  0.00000000
H        H    0.94010000  0.84425000  0.71987000  0.00000000
H        H    0.78013000  0.44010000  0.65575000  0.00000000
H        H    0.28013000  0.94010000  0.15575000  0.00000000
H        H    0.71987000  0.15575000  0.94010000  0.00000000
H        H    0.65575000  0.44010000  0.21987000  0.00000000
H        H    0.71987000  0.05990000  0.15575000  0.00000000
H        H    0.78013000  0.55990000  0.34425000  0.00000000
H        H    0.05990000  0.15575000  0.71987000  0.00000000
H        H    0.55990000  0.21987000  0.34425000  0.00000000
H        H    0.55990000  0.34425000  0.78013000  0.00000000
H        H    0.05990000  0.71987000  0.84425000  0.00000000
H        H    0.21987000  0.34425000  0.55990000  0.00000000
H        H    0.05990000  0.84425000  0.28013000  0.00000000
H        H    0.15575000  0.71987000  0.05990000  0.00000000
H        H    0.65575000  0.78013000  0.44010000  0.00000000
H        H    0.55990000  0.65575000  0.21987000  0.00000000
H        H    0.65575000  0.55990000  0.78013000  0.00000000
H        H    0.34425000  0.78013000  0.55990000  0.00000000
H        H    0.44010000  0.65575000  0.78013000  0.00000000
H        H    0.28013000  0.05990000  0.84425000  0.00000000
H        H    0.84425000  0.71987000  0.94010000  0.00000000
H        H    0.55990000  0.78013000  0.65575000  0.00000000
H        H    0.15575000  0.94010000  0.71987000  0.00000000
H        H    0.65575000  0.21987000  0.55990000  0.00000000
H        H    0.44010000  0.78013000  0.34425000  0.00000000
H        H    0.15575000  0.05990000  0.28013000  0.00000000
H        H    0.15575000  0.28013000  0.94010000  0.00000000
H        H    0.34425000  0.21987000  0.44010000  0.00000000
H        H    0.44010000  0.21987000  0.65575000  0.00000000
H        H    0.94010000  0.28013000  0.84425000  0.00000000
H        H    0.28013000  0.84425000  0.94010000  0.00000000
H        H    0.21987000  0.44010000  0.34425000  0.00000000
H        H    0.44010000  0.34425000  0.21987000  0.00000000
H        H    0.84425000  0.05990000  0.71987000  0.00000000
H        H    0.94010000  0.71987000  0.15575000  0.00000000
H        H    0.71987000  0.94010000  0.84425000  0.00000000
H        H    0.34425000  0.44010000  0.78013000  0.00000000
H        H    0.21987000  0.55990000  0.65575000  0.00000000
H        H    0.71987000  0.84425000  0.05990000  0.00000000
H        H    0.84425000  0.28013000  0.05990000  0.00000000
H        H    0.05990000  0.28013000  0.15575000  0.00000000
H        H    0.78013000  0.34425000  0.44010000  0.00000000
H        H    0.21987000  0.65575000  0.44010000  0.00000000
H        H    0.28013000  0.15575000  0.05990000  0.00000000
H        H    0.94010000  0.15575000  0.28013000  0.00000000
H        H    0.85958000  0.78625000  0.49337000  0.00000000
H        H    0.35958000  0.71375000  0.00663000  0.00000000
H        H    0.99337000  0.64042000  0.71375000  0.00000000
H        H    0.78625000  0.85958000  0.50663000  0.00000000
H        H    0.99337000  0.28625000  0.64042000  0.00000000
H        H    0.49337000  0.78625000  0.14042000  0.00000000
H        H    0.50663000  0.14042000  0.78625000  0.00000000
H        H    0.64042000  0.28625000  0.00663000  0.00000000
H        H    0.50663000  0.21375000  0.14042000  0.00000000
H        H    0.99337000  0.71375000  0.35958000  0.00000000
H        H    0.21375000  0.14042000  0.50663000  0.00000000
H        H    0.71375000  0.00663000  0.35958000  0.00000000
H        H    0.71375000  0.35958000  0.99337000  0.00000000
H        H    0.21375000  0.50663000  0.85958000  0.00000000
H        H    0.00663000  0.35958000  0.71375000  0.00000000
H        H    0.21375000  0.85958000  0.49337000  0.00000000
H        H    0.14042000  0.50663000  0.21375000  0.00000000
H        H    0.64042000  0.99337000  0.28625000  0.00000000
H        H    0.71375000  0.64042000  0.00663000  0.00000000
H        H    0.64042000  0.71375000  0.99337000  0.00000000
H        H    0.35958000  0.99337000  0.71375000  0.00000000
H        H    0.28625000  0.64042000  0.99337000  0.00000000
H        H    0.49337000  0.21375000  0.85958000  0.00000000
H        H    0.85958000  0.50663000  0.78625000  0.00000000
H        H    0.71375000  0.99337000  0.64042000  0.00000000
H        H    0.14042000  0.78625000  0.50663000  0.00000000
H        H    0.64042000  0.00663000  0.71375000  0.00000000
H        H    0.28625000  0.99337000  0.35958000  0.00000000
H        H    0.14042000  0.21375000  0.49337000  0.00000000
H        H    0.14042000  0.49337000  0.78625000  0.00000000
H        H    0.35958000  0.00663000  0.28625000  0.00000000
H        H    0.28625000  0.00663000  0.64042000  0.00000000
H        H    0.78625000  0.49337000  0.85958000  0.00000000
H        H    0.49337000  0.85958000  0.78625000  0.00000000
H        H    0.00663000  0.28625000  0.35958000  0.00000000
H        H    0.28625000  0.35958000  0.00663000  0.00000000
H        H    0.85958000  0.21375000  0.50663000  0.00000000
H        H    0.78625000  0.50663000  0.14042000  0.00000000
H        H    0.50663000  0.78625000  0.85958000  0.00000000
H        H    0.35958000  0.28625000  0.99337000  0.00000000
H        H    0.00663000  0.71375000  0.64042000  0.00000000
H        H    0.50663000  0.85958000  0.21375000  0.00000000
H        H    0.85958000  0.49337000  0.21375000  0.00000000
H        H    0.21375000  0.49337000  0.14042000  0.00000000
H        H    0.99337000  0.35958000  0.28625000  0.00000000
H        H    0.00663000  0.64042000  0.28625000  0.00000000
H        H    0.49337000  0.14042000  0.21375000  0.00000000
H        H    0.78625000  0.14042000  0.49337000  0.00000000
H        H    0.93651000  0.66347000  0.41167000  0.00000000
H        H    0.43651000  0.83653000  0.08833000  0.00000000
H        H    0.91167000  0.56349000  0.83653000  0.00000000
H        H    0.66347000  0.93651000  0.58833000  0.00000000
H        H    0.91167000  0.16347000  0.56349000  0.00000000
H        H    0.41167000  0.66347000  0.06349000  0.00000000
H        H    0.58833000  0.06349000  0.66347000  0.00000000
H        H    0.56349000  0.16347000  0.08833000  0.00000000
H        H    0.58833000  0.33653000  0.06349000  0.00000000
H        H    0.91167000  0.83653000  0.43651000  0.00000000
H        H    0.33653000  0.06349000  0.58833000  0.00000000
H        H    0.83653000  0.08833000  0.43651000  0.00000000
H        H    0.83653000  0.43651000  0.91167000  0.00000000
H        H    0.33653000  0.58833000  0.93651000  0.00000000
H        H    0.08833000  0.43651000  0.83653000  0.00000000
H        H    0.33653000  0.93651000  0.41167000  0.00000000
H        H    0.06349000  0.58833000  0.33653000  0.00000000
H        H    0.56349000  0.91167000  0.16347000  0.00000000
H        H    0.83653000  0.56349000  0.08833000  0.00000000
H        H    0.56349000  0.83653000  0.91167000  0.00000000
H        H    0.43651000  0.91167000  0.83653000  0.00000000
H        H    0.16347000  0.56349000  0.91167000  0.00000000
H        H    0.41167000  0.33653000  0.93651000  0.00000000
H        H    0.93651000  0.58833000  0.66347000  0.00000000
H        H    0.83653000  0.91167000  0.56349000  0.00000000
H        H    0.06349000  0.66347000  0.58833000  0.00000000
H        H    0.56349000  0.08833000  0.83653000  0.00000000
H        H    0.16347000  0.91167000  0.43651000  0.00000000
H        H    0.06349000  0.33653000  0.41167000  0.00000000
H        H    0.06349000  0.41167000  0.66347000  0.00000000
H        H    0.43651000  0.08833000  0.16347000  0.00000000
H        H    0.16347000  0.08833000  0.56349000  0.00000000
H        H    0.66347000  0.41167000  0.93651000  0.00000000
H        H    0.41167000  0.93651000  0.66347000  0.00000000
H        H    0.08833000  0.16347000  0.43651000  0.00000000
H        H    0.16347000  0.43651000  0.08833000  0.00000000
H        H    0.93651000  0.33653000  0.58833000  0.00000000
H        H    0.66347000  0.58833000  0.06349000  0.00000000
H        H    0.58833000  0.66347000  0.93651000  0.00000000
H        H    0.43651000  0.16347000  0.91167000  0.00000000
H        H    0.08833000  0.83653000  0.56349000  0.00000000
H        H    0.58833000  0.93651000  0.33653000  0.00000000
H        H    0.93651000  0.41167000  0.33653000  0.00000000
H        H    0.33653000  0.41167000  0.06349000  0.00000000
H        H    0.91167000  0.43651000  0.16347000  0.00000000
H        H    0.08833000  0.56349000  0.16347000  0.00000000
H        H    0.41167000  0.06349000  0.33653000  0.00000000
H        H    0.66347000  0.06349000  0.41167000  0.00000000
H        H    0.97160000  0.64558000  0.46401000  0.00000000
H        H    0.47160000  0.85442000  0.03599000  0.00000000
H        H    0.96401000  0.52840000  0.85442000  0.00000000
H        H    0.64558000  0.97160000  0.53599000  0.00000000
H        H    0.96401000  0.14558000  0.52840000  0.00000000
H        H    0.46401000  0.64558000  0.02840000  0.00000000
H        H    0.53599000  0.02840000  0.64558000  0.00000000
H        H    0.52840000  0.14558000  0.03599000  0.00000000
H        H    0.53599000  0.35442000  0.02840000  0.00000000
H        H    0.96401000  0.85442000  0.47160000  0.00000000
H        H    0.35442000  0.02840000  0.53599000  0.00000000
H        H    0.85442000  0.03599000  0.47160000  0.00000000
H        H    0.85442000  0.47160000  0.96401000  0.00000000
H        H    0.35442000  0.53599000  0.97160000  0.00000000
H        H    0.03599000  0.47160000  0.85442000  0.00000000
H        H    0.35442000  0.97160000  0.46401000  0.00000000
H        H    0.02840000  0.53599000  0.35442000  0.00000000
H        H    0.52840000  0.96401000  0.14558000  0.00000000
H        H    0.85442000  0.52840000  0.03599000  0.00000000
H        H    0.52840000  0.85442000  0.96401000  0.00000000
H        H    0.47160000  0.96401000  0.85442000  0.00000000
H        H    0.14558000  0.52840000  0.96401000  0.00000000
H        H    0.46401000  0.35442000  0.97160000  0.00000000
H        H    0.97160000  0.53599000  0.64558000  0.00000000
H        H    0.85442000  0.96401000  0.52840000  0.00000000
H        H    0.02840000  0.64558000  0.53599000  0.00000000
H        H    0.52840000  0.03599000  0.85442000  0.00000000
H        H    0.14558000  0.96401000  0.47160000  0.00000000
H        H    0.02840000  0.35442000  0.46401000  0.00000000
H        H    0.02840000  0.46401000  0.64558000  0.00000000
H        H    0.47160000  0.03599000  0.14558000  0.00000000
H        H    0.14558000  0.03599000  0.52840000  0.00000000
H        H    0.64558000  0.46401000  0.97160000  0.00000000
H        H    0.46401000  0.97160000  0.64558000  0.00000000
H        H    0.03599000  0.14558000  0.47160000  0.00000000
H        H    0.14558000  0.47160000  0.03599000  0.00000000
H        H    0.97160000  0.35442000  0.53599000  0.00000000
H        H    0.64558000  0.53599000  0.02840000  0.00000000
H        H    0.53599000  0.64558000  0.97160000  0.00000000
H        H    0.47160000  0.14558000  0.96401000  0.00000000
H        H    0.03599000  0.85442000  0.52840000  0.00000000
H        H    0.53599000  0.97160000  0.35442000  0.00000000
H        H    0.97160000  0.46401000  0.35442000  0.00000000
H        H    0.35442000  0.46401000  0.02840000  0.00000000
H        H    0.96401000  0.47160000  0.14558000  0.00000000
H        H    0.03599000  0.52840000  0.14558000  0.00000000
H        H    0.46401000  0.02840000  0.35442000  0.00000000
H        H    0.64558000  0.02840000  0.46401000  0.00000000
H        H    0.90361000  0.61676000  0.56541000  0.00000000
H        H    0.40361000  0.88324000  0.93459000  0.00000000
H        H    0.06541000  0.59639000  0.88324000  0.00000000
H        H    0.61676000  0.90361000  0.43459000  0.00000000
H        H    0.06541000  0.11676000  0.59639000  0.00000000
H        H    0.56541000  0.61676000  0.09639000  0.00000000
H        H    0.43459000  0.09639000  0.61676000  0.00000000
H        H    0.59639000  0.11676000  0.93459000  0.00000000
H        H    0.43459000  0.38324000  0.09639000  0.00000000
H        H    0.06541000  0.88324000  0.40361000  0.00000000
H        H    0.38324000  0.09639000  0.43459000  0.00000000
H        H    0.88324000  0.93459000  0.40361000  0.00000000
H        H    0.88324000  0.40361000  0.06541000  0.00000000
H        H    0.38324000  0.43459000  0.90361000  0.00000000
H        H    0.93459000  0.40361000  0.88324000  0.00000000
H        H    0.38324000  0.90361000  0.56541000  0.00000000
H        H    0.09639000  0.43459000  0.38324000  0.00000000
H        H    0.59639000  0.06541000  0.11676000  0.00000000
H        H    0.88324000  0.59639000  0.93459000  0.00000000
H        H    0.59639000  0.88324000  0.06541000  0.00000000
H        H    0.40361000  0.06541000  0.88324000  0.00000000
H        H    0.11676000  0.59639000  0.06541000  0.00000000
H        H    0.56541000  0.38324000  0.90361000  0.00000000
H        H    0.90361000  0.43459000  0.61676000  0.00000000
H        H    0.88324000  0.06541000  0.59639000  0.00000000
H        H    0.09639000  0.61676000  0.43459000  0.00000000
H        H    0.59639000  0.93459000  0.88324000  0.00000000
H        H    0.11676000  0.06541000  0.40361000  0.00000000
H        H    0.09639000  0.38324000  0.56541000  0.00000000
H        H    0.09639000  0.56541000  0.61676000  0.00000000
H        H    0.40361000  0.93459000  0.11676000  0.00000000
H        H    0.11676000  0.93459000  0.59639000  0.00000000
H        H    0.61676000  0.56541000  0.90361000  0.00000000
H        H    0.56541000  0.90361000  0.61676000  0.00000000
H        H    0.93459000  0.11676000  0.40361000  0.00000000
H        H    0.11676000  0.40361000  0.93459000  0.00000000
H        H    0.90361000  0.38324000  0.43459000  0.00000000
H        H    0.61676000  0.43459000  0.09639000  0.00000000
H        H    0.43459000  0.61676000  0.90361000  0.00000000
H        H    0.40361000  0.11676000  0.06541000  0.00000000
H        H    0.93459000  0.88324000  0.59639000  0.00000000
H        H    0.43459000  0.90361000  0.38324000  0.00000000
H        H    0.90361000  0.56541000  0.38324000  0.00000000
H        H    0.38324000  0.56541000  0.09639000  0.00000000
H        H    0.06541000  0.40361000  0.11676000  0.00000000
H        H    0.93459000  0.59639000  0.11676000  0.00000000
H        H    0.56541000  0.09639000  0.38324000  0.00000000
H        H    0.61676000  0.09639000  0.56541000  0.00000000
H        H    0.93351000  0.66720000  0.59455000  0.00000000
H        H    0.43351000  0.83280000  0.90545000  0.00000000
H        H    0.09455000  0.56649000  0.83280000  0.00000000
H        H    0.66720000  0.93351000  0.40545000  0.00000000
H        H    0.09455000  0.16720000  0.56649000  0.00000000
H        H    0.59455000  0.66720000  0.06649000  0.00000000
H        H    0.40545000  0.06649000  0.66720000  0.00000000
H        H    0.56649000  0.16720000  0.90545000  0.00000000
H        H    0.40545000  0.33280000  0.06649000  0.00000000
H        H    0.09455000  0.83280000  0.43351000  0.00000000
H        H    0.33280000  0.06649000  0.40545000  0.00000000
H        H    0.83280000  0.90545000  0.43351000  0.00000000
H        H    0.83280000  0.43351000  0.09455000  0.00000000
H        H    0.33280000  0.40545000  0.93351000  0.00000000
H        H    0.90545000  0.43351000  0.83280000  0.00000000
H        H    0.33280000  0.93351000  0.59455000  0.00000000
H        H    0.06649000  0.40545000  0.33280000  0.00000000
H        H    0.56649000  0.09455000  0.16720000  0.00000000
H        H    0.83280000  0.56649000  0.90545000  0.00000000
H        H    0.56649000  0.83280000  0.09455000  0.00000000
H        H    0.43351000  0.09455000  0.83280000  0.00000000
H        H    0.16720000  0.56649000  0.09455000  0.00000000
H        H    0.59455000  0.33280000  0.93351000  0.00000000
H        H    0.93351000  0.40545000  0.66720000  0.00000000
H        H    0.83280000  0.09455000  0.56649000  0.00000000
H        H    0.06649000  0.66720000  0.40545000  0.00000000
H        H    0.56649000  0.90545000  0.83280000  0.00000000
H        H    0.16720000  0.09455000  0.43351000  0.00000000
H        H    0.06649000  0.33280000  0.59455000  0.00000000
H        H    0.06649000  0.59455000  0.66720000  0.00000000
H        H    0.43351000  0.90545000  0.16720000  0.00000000
H        H    0.16720000  0.90545000  0.56649000  0.00000000
H        H    0.66720000  0.59455000  0.93351000  0.00000000
H        H    0.59455000  0.93351000  0.66720000  0.00000000
H        H    0.90545000  0.16720000  0.43351000  0.00000000
H        H    0.16720000  0.43351000  0.90545000  0.00000000
H        H    0.93351000  0.33280000  0.40545000  0.00000000
H        H    0.66720000  0.40545000  0.06649000  0.00000000
H        H    0.40545000  0.66720000  0.93351000  0.00000000
H        H    0.43351000  0.16720000  0.09455000  0.00000000
H        H    0.90545000  0.83280000  0.56649000  0.00000000
H        H    0.40545000  0.93351000  0.33280000  0.00000000
H        H    0.93351000  0.59455000  0.33280000  0.00000000
H        H    0.33280000  0.59455000  0.06649000  0.00000000
H        H    0.09455000  0.43351000  0.16720000  0.00000000
H        H    0.90545000  0.56649000  0.16720000  0.00000000
H        H    0.59455000  0.06649000  0.33280000  0.00000000
H        H    0.66720000  0.06649000  0.59455000  0.00000000
H        H    0.95866000  0.64137000  0.53988000  0.00000000
H        H    0.45866000  0.85863000  0.96012000  0.00000000
H        H    0.03988000  0.54134000  0.85863000  0.00000000
H        H    0.64137000  0.95866000  0.46012000  0.00000000
H        H    0.03988000  0.14137000  0.54134000  0.00000000
H        H    0.53988000  0.64137000  0.04134000  0.00000000
H        H    0.46012000  0.04134000  0.64137000  0.00000000
H        H    0.54134000  0.14137000  0.96012000  0.00000000
H        H    0.46012000  0.35863000  0.04134000  0.00000000
H        H    0.03988000  0.85863000  0.45866000  0.00000000
H        H    0.35863000  0.04134000  0.46012000  0.00000000
H        H    0.85863000  0.96012000  0.45866000  0.00000000
H        H    0.85863000  0.45866000  0.03988000  0.00000000
H        H    0.35863000  0.46012000  0.95866000  0.00000000
H        H    0.96012000  0.45866000  0.85863000  0.00000000
H        H    0.35863000  0.95866000  0.53988000  0.00000000
H        H    0.04134000  0.46012000  0.35863000  0.00000000
H        H    0.54134000  0.03988000  0.14137000  0.00000000
H        H    0.85863000  0.54134000  0.96012000  0.00000000
H        H    0.54134000  0.85863000  0.03988000  0.00000000
H        H    0.45866000  0.03988000  0.85863000  0.00000000
H        H    0.14137000  0.54134000  0.03988000  0.00000000
H        H    0.53988000  0.35863000  0.95866000  0.00000000
H        H    0.95866000  0.46012000  0.64137000  0.00000000
H        H    0.85863000  0.03988000  0.54134000  0.00000000
H        H    0.04134000  0.64137000  0.46012000  0.00000000
H        H    0.54134000  0.96012000  0.85863000  0.00000000
H        H    0.14137000  0.03988000  0.45866000  0.00000000
H        H    0.04134000  0.35863000  0.53988000  0.00000000
H        H    0.04134000  0.53988000  0.64137000  0.00000000
H        H    0.45866000  0.96012000  0.14137000  0.00000000
H        H    0.14137000  0.96012000  0.54134000  0.00000000
H        H    0.64137000  0.53988000  0.95866000  0.00000000
H        H    0.53988000  0.95866000  0.64137000  0.00000000
H        H    0.96012000  0.14137000  0.45866000  0.00000000
H        H    0.14137000  0.45866000  0.96012000  0.00000000
H        H    0.95866000  0.35863000  0.46012000  0.00000000
H        H    0.64137000  0.46012000  0.04134000  0.00000000
H        H    0.46012000  0.64137000  0.95866000  0.00000000
H        H    0.45866000  0.14137000  0.03988000  0.00000000
H        H    0.96012000  0.85863000  0.54134000  0.00000000
H        H    0.46012000  0.95866000  0.35863000  0.00000000
H        H    0.95866000  0.53988000  0.35863000  0.00000000
H        H    0.35863000  0.53988000  0.04134000  0.00000000
H        H    0.03988000  0.45866000  0.14137000  0.00000000
H        H    0.96012000  0.54134000  0.14137000  0.00000000
H        H    0.53988000  0.04134000  0.35863000  0.00000000
H        H    0.64137000  0.04134000  0.53988000  0.00000000
H        H    0.81142000  0.81518000  0.44453000  0.00000000
H        H    0.31142000  0.68482000  0.05547000  0.00000000
H        H    0.94453000  0.68858000  0.68482000  0.00000000
H        H    0.81518000  0.81142000  0.55547000  0.00000000
H        H    0.94453000  0.31518000  0.68858000  0.00000000
H        H    0.44453000  0.81518000  0.18858000  0.00000000
H        H    0.55547000  0.18858000  0.81518000  0.00000000
H        H    0.68858000  0.31518000  0.05547000  0.00000000
H        H    0.55547000  0.18482000  0.18858000  0.00000000
H        H    0.94453000  0.68482000  0.31142000  0.00000000
H        H    0.18482000  0.18858000  0.55547000  0.00000000
H        H    0.68482000  0.05547000  0.31142000  0.00000000
H        H    0.68482000  0.31142000  0.94453000  0.00000000
H        H    0.18482000  0.55547000  0.81142000  0.00000000
H        H    0.05547000  0.31142000  0.68482000  0.00000000
H        H    0.18482000  0.81142000  0.44453000  0.00000000
H        H    0.18858000  0.55547000  0.18482000  0.00000000
H        H    0.68858000  0.94453000  0.31518000  0.00000000
H        H    0.68482000  0.68858000  0.05547000  0.00000000
H        H    0.68858000  0.68482000  0.94453000  0.00000000
H        H    0.31142000  0.94453000  0.68482000  0.00000000
H        H    0.31518000  0.68858000  0.94453000  0.00000000
H        H    0.44453000  0.18482000  0.81142000  0.00000000
H        H    0.81142000  0.55547000  0.81518000  0.00000000
H        H    0.68482000  0.94453000  0.68858000  0.00000000
H        H    0.18858000  0.81518000  0.55547000  0.00000000
H        H    0.68858000  0.05547000  0.68482000  0.00000000
H        H    0.31518000  0.94453000  0.31142000  0.00000000
H        H    0.18858000  0.18482000  0.44453000  0.00000000
H        H    0.18858000  0.44453000  0.81518000  0.00000000
H        H    0.31142000  0.05547000  0.31518000  0.00000000
H        H    0.31518000  0.05547000  0.68858000  0.00000000
H        H    0.81518000  0.44453000  0.81142000  0.00000000
H        H    0.44453000  0.81142000  0.81518000  0.00000000
H        H    0.05547000  0.31518000  0.31142000  0.00000000
H        H    0.31518000  0.31142000  0.05547000  0.00000000
H        H    0.81142000  0.18482000  0.55547000  0.00000000
H        H    0.81518000  0.55547000  0.18858000  0.00000000
H        H    0.55547000  0.81518000  0.81142000  0.00000000
H        H    0.31142000  0.31518000  0.94453000  0.00000000
H        H    0.05547000  0.68482000  0.68858000  0.00000000
H        H    0.55547000  0.81142000  0.18482000  0.00000000
H        H    0.81142000  0.44453000  0.18482000  0.00000000
H        H    0.18482000  0.44453000  0.18858000  0.00000000
H        H    0.94453000  0.31142000  0.31518000  0.00000000
H        H    0.05547000  0.68858000  0.31518000  0.00000000
H        H    0.44453000  0.18858000  0.18482000  0.00000000
H        H    0.81518000  0.18858000  0.44453000  0.00000000
H        H    0.86838000  0.78467000  0.27268000  0.00000000
H        H    0.36838000  0.71533000  0.22732000  0.00000000
H        H    0.77268000  0.63162000  0.71533000  0.00000000
H        H    0.78467000  0.86838000  0.72732000  0.00000000
H        H    0.77268000  0.28467000  0.63162000  0.00000000
H        H    0.27268000  0.78467000  0.13162000  0.00000000
H        H    0.72732000  0.13162000  0.78467000  0.00000000
H        H    0.63162000  0.28467000  0.22732000  0.00000000
H        H    0.72732000  0.21533000  0.13162000  0.00000000
H        H    0.77268000  0.71533000  0.36838000  0.00000000
H        H    0.21533000  0.13162000  0.72732000  0.00000000
H        H    0.71533000  0.22732000  0.36838000  0.00000000
H        H    0.71533000  0.36838000  0.77268000  0.00000000
H        H    0.21533000  0.72732000  0.86838000  0.00000000
H        H    0.22732000  0.36838000  0.71533000  0.00000000
H        H    0.21533000  0.86838000  0.27268000  0.00000000
H        H    0.13162000  0.72732000  0.21533000  0.00000000
H        H    0.63162000  0.77268000  0.28467000  0.00000000
H        H    0.71533000  0.63162000  0.22732000  0.00000000
H        H    0.63162000  0.71533000  0.77268000  0.00000000
H        H    0.36838000  0.77268000  0.71533000  0.00000000
H        H    0.28467000  0.63162000  0.77268000  0.00000000
H        H    0.27268000  0.21533000  0.86838000  0.00000000
H        H    0.86838000  0.72732000  0.78467000  0.00000000
H        H    0.71533000  0.77268000  0.63162000  0.00000000
H        H    0.13162000  0.78467000  0.72732000  0.00000000
H        H    0.63162000  0.22732000  0.71533000  0.00000000
H        H    0.28467000  0.77268000  0.36838000  0.00000000
H        H    0.13162000  0.21533000  0.27268000  0.00000000
H        H    0.13162000  0.27268000  0.78467000  0.00000000
H        H    0.36838000  0.22732000  0.28467000  0.00000000
H        H    0.28467000  0.22732000  0.63162000  0.00000000
H        H    0.78467000  0.27268000  0.86838000  0.00000000
H        H    0.27268000  0.86838000  0.78467000  0.00000000
H        H    0.22732000  0.28467000  0.36838000  0.00000000
H        H    0.28467000  0.36838000  0.22732000  0.00000000
H        H    0.86838000  0.21533000  0.72732000  0.00000000
H        H    0.78467000  0.72732000  0.13162000  0.00000000
H        H    0.72732000  0.78467000  0.86838000  0.00000000
H        H    0.36838000  0.28467000  0.77268000  0.00000000
H        H    0.22732000  0.71533000  0.63162000  0.00000000
H        H    0.72732000  0.86838000  0.21533000  0.00000000
H        H    0.86838000  0.27268000  0.21533000  0.00000000
H        H    0.21533000  0.27268000  0.13162000  0.00000000
H        H    0.77268000  0.36838000  0.28467000  0.00000000
H        H    0.22732000  0.63162000  0.28467000  0.00000000
H        H    0.27268000  0.13162000  0.21533000  0.00000000
H        H    0.78467000  0.13162000  0.27268000  0.00000000
H        H    0.91870000  0.78308000  0.31454000  0.00000000
H        H    0.41870000  0.71692000  0.18546000  0.00000000
H        H    0.81454000  0.58130000  0.71692000  0.00000000
H        H    0.78308000  0.91870000  0.68546000  0.00000000
H        H    0.81454000  0.28308000  0.58130000  0.00000000
H        H    0.31454000  0.78308000  0.08130000  0.00000000
H        H    0.68546000  0.08130000  0.78308000  0.00000000
H        H    0.58130000  0.28308000  0.18546000  0.00000000
H        H    0.68546000  0.21692000  0.08130000  0.00000000
H        H    0.81454000  0.71692000  0.41870000  0.00000000
H        H    0.21692000  0.08130000  0.68546000  0.00000000
H        H    0.71692000  0.18546000  0.41870000  0.00000000
H        H    0.71692000  0.41870000  0.81454000  0.00000000
H        H    0.21692000  0.68546000  0.91870000  0.00000000
H        H    0.18546000  0.41870000  0.71692000  0.00000000
H        H    0.21692000  0.91870000  0.31454000  0.00000000
H        H    0.08130000  0.68546000  0.21692000  0.00000000
H        H    0.58130000  0.81454000  0.28308000  0.00000000
H        H    0.71692000  0.58130000  0.18546000  0.00000000
H        H    0.58130000  0.71692000  0.81454000  0.00000000
H        H    0.41870000  0.81454000  0.71692000  0.00000000
H        H    0.28308000  0.58130000  0.81454000  0.00000000
H        H    0.31454000  0.21692000  0.91870000  0.00000000
H        H    0.91870000  0.68546000  0.78308000  0.00000000
H        H    0.71692000  0.81454000  0.58130000  0.00000000
H        H    0.08130000  0.78308000  0.68546000  0.00000000
H        H    0.58130000  0.18546000  0.71692000  0.00000000
H        H    0.28308000  0.81454000  0.41870000  0.00000000
H        H    0.08130000  0.21692000  0.31454000  0.00000000
H        H    0.08130000  0.31454000  0.78308000  0.00000000
H        H    0.41870000  0.18546000  0.28308000  0.00000000
H        H    0.28308000  0.18546000  0.58130000  0.00000000
H        H    0.78308000  0.31454000  0.91870000  0.00000000
H        H    0.31454000  0.91870000  0.78308000  0.00000000
H        H    0.18546000  0.28308000  0.41870000  0.00000000
H        H    0.28308000  0.41870000  0.18546000  0.00000000
H        H    0.91870000  0.21692000  0.68546000  0.00000000
H        H    0.78308000  0.68546000  0.08130000  0.00000000
H        H    0.68546000  0.78308000  0.91870000  0.00000000
H        H    0.41870000  0.28308000  0.81454000  0.00000000
H        H    0.18546000  0.71692000  0.58130000  0.00000000
H        H    0.68546000  0.91870000  0.21692000  0.00000000
H        H    0.91870000  0.31454000  0.21692000  0.00000000
H        H    0.21692000  0.31454000  0.08130000  0.00000000
H        H    0.81454000  0.41870000  0.28308000  0.00000000
H        H    0.18546000  0.58130000  0.28308000  0.00000000
H        H    0.31454000  0.08130000  0.21692000  0.00000000
H        H    0.78308000  0.08130000  0.31454000  0.00000000
H        H    0.90380000  0.83869000  0.28335000  0.00000000
H        H    0.40380000  0.66131000  0.21665000  0.00000000
H        H    0.78335000  0.59620000  0.66131000  0.00000000
H        H    0.83869000  0.90380000  0.71665000  0.00000000
H        H    0.78335000  0.33869000  0.59620000  0.00000000
H        H    0.28335000  0.83869000  0.09620000  0.00000000
H        H    0.71665000  0.09620000  0.83869000  0.00000000
H        H    0.59620000  0.33869000  0.21665000  0.00000000
H        H    0.71665000  0.16131000  0.09620000  0.00000000
H        H    0.78335000  0.66131000  0.40380000  0.00000000
H        H    0.16131000  0.09620000  0.71665000  0.00000000
H        H    0.66131000  0.21665000  0.40380000  0.00000000
H        H    0.66131000  0.40380000  0.78335000  0.00000000
H        H    0.16131000  0.71665000  0.90380000  0.00000000
H        H    0.21665000  0.40380000  0.66131000  0.00000000
H        H    0.16131000  0.90380000  0.28335000  0.00000000
H        H    0.09620000  0.71665000  0.16131000  0.00000000
H        H    0.59620000  0.78335000  0.33869000  0.00000000
H        H    0.66131000  0.59620000  0.21665000  0.00000000
H        H    0.59620000  0.66131000  0.78335000  0.00000000
H        H    0.40380000  0.78335000  0.66131000  0.00000000
H        H    0.33869000  0.59620000  0.78335000  0.00000000
H        H    0.28335000  0.16131000  0.90380000  0.00000000
H        H    0.90380000  0.71665000  0.83869000  0.00000000
H        H    0.66131000  0.78335000  0.59620000  0.00000000
H        H    0.09620000  0.83869000  0.71665000  0.00000000
H        H    0.59620000  0.21665000  0.66131000  0.00000000
H        H    0.33869000  0.78335000  0.40380000  0.00000000
H        H    0.09620000  0.16131000  0.28335000  0.00000000
H        H    0.09620000  0.28335000  0.83869000  0.00000000
H        H    0.40380000  0.21665000  0.33869000  0.00000000
H        H    0.33869000  0.21665000  0.59620000  0.00000000
H        H    0.83869000  0.28335000  0.90380000  0.00000000
H        H    0.28335000  0.90380000  0.83869000  0.00000000
H        H    0.21665000  0.33869000  0.40380000  0.00000000
H        H    0.33869000  0.40380000  0.21665000  0.00000000
H        H    0.90380000  0.16131000  0.71665000  0.00000000
H        H    0.83869000  0.71665000  0.09620000  0.00000000
H        H    0.71665000  0.83869000  0.90380000  0.00000000
H        H    0.40380000  0.33869000  0.78335000  0.00000000
H        H    0.21665000  0.66131000  0.59620000  0.00000000
H        H    0.71665000  0.90380000  0.16131000  0.00000000
H        H    0.90380000  0.28335000  0.16131000  0.00000000
H        H    0.16131000  0.28335000  0.09620000  0.00000000
H        H    0.78335000  0.40380000  0.33869000  0.00000000
H        H    0.21665000  0.59620000  0.33869000  0.00000000
H        H    0.28335000  0.09620000  0.16131000  0.00000000
H        H    0.83869000  0.09620000  0.28335000  0.00000000
H        H    0.82696000  0.86826000  0.26368000  0.00000000
H        H    0.32696000  0.63174000  0.23632000  0.00000000
H        H    0.76368000  0.67304000  0.63174000  0.00000000
H        H    0.86826000  0.82696000  0.73632000  0.00000000
H        H    0.76368000  0.36826000  0.67304000  0.00000000
H        H    0.26368000  0.86826000  0.17304000  0.00000000
H        H    0.73632000  0.17304000  0.86826000  0.00000000
H        H    0.67304000  0.36826000  0.23632000  0.00000000
H        H    0.73632000  0.13174000  0.17304000  0.00000000
H        H    0.76368000  0.63174000  0.32696000  0.00000000
H        H    0.13174000  0.17304000  0.73632000  0.00000000
H        H    0.63174000  0.23632000  0.32696000  0.00000000
H        H    0.63174000  0.32696000  0.76368000  0.00000000
H        H    0.13174000  0.73632000  0.82696000  0.00000000
H        H    0.23632000  0.32696000  0.63174000  0.00000000
H        H    0.13174000  0.82696000  0.26368000  0.00000000
H        H    0.17304000  0.73632000  0.13174000  0.00000000
H        H    0.67304000  0.76368000  0.36826000  0.00000000
H        H    0.63174000  0.67304000  0.23632000  0.00000000
H        H    0.67304000  0.63174000  0.76368000  0.00000000
H        H    0.32696000  0.76368000  0.63174000  0.00000000
H        H    0.36826000  0.67304000  0.76368000  0.00000000
H        H    0.26368000  0.13174000  0.82696000  0.00000000
H        H    0.82696000  0.73632000  0.86826000  0.00000000
H        H    0.63174000  0.76368000  0.67304000  0.00000000
H        H    0.17304000  0.86826000  0.73632000  0.00000000
H        H    0.67304000  0.23632000  0.63174000  0.00000000
H        H    0.36826000  0.76368000  0.32696000  0.00000000
H        H    0.17304000  0.13174000  0.26368000  0.00000000
H        H    0.17304000  0.26368000  0.86826000  0.00000000
H        H    0.32696000  0.23632000  0.36826000  0.00000000
H        H    0.36826000  0.23632000  0.67304000  0.00000000
H        H    0.86826000  0.26368000  0.82696000  0.00000000
H        H    0.26368000  0.82696000  0.86826000  0.00000000
H        H    0.23632000  0.36826000  0.32696000  0.00000000
H        H    0.36826000  0.32696000  0.23632000  0.00000000
H        H    0.82696000  0.13174000  0.73632000  0.00000000
H        H    0.86826000  0.73632000  0.17304000  0.00000000
H        H    0.73632000  0.86826000  0.82696000  0.00000000
H        H    0.32696000  0.36826000  0.76368000  0.00000000
H        H    0.23632000  0.63174000  0.67304000  0.00000000
H        H    0.73632000  0.82696000  0.13174000  0.00000000
H        H    0.82696000  0.26368000  0.13174000  0.00000000
H        H    0.13174000  0.26368000  0.17304000  0.00000000
H        H    0.76368000  0.32696000  0.36826000  0.00000000
H        H    0.23632000  0.67304000  0.36826000  0.00000000
H        H    0.26368000  0.17304000  0.13174000  0.00000000
H        H    0.86826000  0.17304000  0.26368000  0.00000000
H        H    0.76728000  0.87541000  0.28959000  0.00000000
H        H    0.26728000  0.62459000  0.21041000  0.00000000
H        H    0.78959000  0.73272000  0.62459000  0.00000000
H        H    0.87541000  0.76728000  0.71041000  0.00000000
H        H    0.78959000  0.37541000  0.73272000  0.00000000
H        H    0.28959000  0.87541000  0.23272000  0.00000000
H        H    0.71041000  0.23272000  0.87541000  0.00000000
H        H    0.73272000  0.37541000  0.21041000  0.00000000
H        H    0.71041000  0.12459000  0.23272000  0.00000000
H        H    0.78959000  0.62459000  0.26728000  0.00000000
H        H    0.12459000  0.23272000  0.71041000  0.00000000
H        H    0.62459000  0.21041000  0.26728000  0.00000000
H        H    0.62459000  0.26728000  0.78959000  0.00000000
H        H    0.12459000  0.71041000  0.76728000  0.00000000
H        H    0.21041000  0.26728000  0.62459000  0.00000000
H        H    0.12459000  0.76728000  0.28959000  0.00000000
H        H    0.23272000  0.71041000  0.12459000  0.00000000
H        H    0.73272000  0.78959000  0.37541000  0.00000000
H        H    0.62459000  0.73272000  0.21041000  0.00000000
H        H    0.73272000  0.62459000  0.78959000  0.00000000
H        H    0.26728000  0.78959000  0.62459000  0.00000000
H        H    0.37541000  0.73272000  0.78959000  0.00000000
H        H    0.28959000  0.12459000  0.76728000  0.00000000
H        H    0.76728000  0.71041000  0.87541000  0.00000000
H        H    0.62459000  0.78959000  0.73272000  0.00000000
H        H    0.23272000  0.87541000  0.71041000  0.00000000
H        H    0.73272000  0.21041000  0.62459000  0.00000000
H        H    0.37541000  0.78959000  0.26728000  0.00000000
H        H    0.23272000  0.12459000  0.28959000  0.00000000
H        H    0.23272000  0.28959000  0.87541000  0.00000000
H        H    0.26728000  0.21041000  0.37541000  0.00000000
H        H    0.37541000  0.21041000  0.73272000  0.00000000
H        H    0.87541000  0.28959000  0.76728000  0.00000000
H        H    0.28959000  0.76728000  0.87541000  0.00000000
H        H    0.21041000  0.37541000  0.26728000  0.00000000
H        H    0.37541000  0.26728000  0.21041000  0.00000000
H        H    0.76728000  0.12459000  0.71041000  0.00000000
H        H    0.87541000  0.71041000  0.23272000  0.00000000
H        H    0.71041000  0.87541000  0.76728000  0.00000000
H        H    0.26728000  0.37541000  0.78959000  0.00000000
H        H    0.21041000  0.62459000  0.73272000  0.00000000
H        H    0.71041000  0.76728000  0.12459000  0.00000000
H        H    0.76728000  0.28959000  0.12459000  0.00000000
H        H    0.12459000  0.28959000  0.23272000  0.00000000
H        H    0.78959000  0.26728000  0.37541000  0.00000000
H        H    0.21041000  0.73272000  0.37541000  0.00000000
H        H    0.28959000  0.23272000  0.12459000  0.00000000
H        H    0.87541000  0.23272000  0.28959000  0.00000000
Zn       Zn   0.39900000  0.75000000  0.10100000  0.00000000
Zn       Zn   0.60100000  0.25000000  0.10100000  0.00000000
Zn       Zn   0.89900000  0.75000000  0.39900000  0.00000000
Zn       Zn   0.25000000  0.60100000  0.89900000  0.00000000
Zn       Zn   0.89900000  0.60100000  0.75000000  0.00000000
Zn       Zn   0.75000000  0.89900000  0.60100000  0.00000000
Zn       Zn   0.60100000  0.10100000  0.75000000  0.00000000
Zn       Zn   0.25000000  0.89900000  0.39900000  0.00000000
Zn       Zn   0.10100000  0.39900000  0.75000000  0.00000000
Zn       Zn   0.25000000  0.10100000  0.60100000  0.00000000
Zn       Zn   0.75000000  0.39900000  0.89900000  0.00000000
Zn       Zn   0.39900000  0.89900000  0.75000000  0.00000000
Zn       Zn   0.10100000  0.25000000  0.39900000  0.00000000
Zn       Zn   0.89900000  0.25000000  0.60100000  0.00000000
Zn       Zn   0.75000000  0.60100000  0.10100000  0.00000000
Zn       Zn   0.60100000  0.75000000  0.89900000  0.00000000
Zn       Zn   0.39900000  0.25000000  0.89900000  0.00000000
Zn       Zn   0.10100000  0.75000000  0.60100000  0.00000000
Zn       Zn   0.60100000  0.89900000  0.25000000  0.00000000
Zn       Zn   0.25000000  0.39900000  0.10100000  0.00000000
Zn       Zn   0.89900000  0.39900000  0.25000000  0.00000000
Zn       Zn   0.10100000  0.60100000  0.25000000  0.00000000
Zn       Zn   0.39900000  0.10100000  0.25000000  0.00000000
Zn       Zn   0.75000000  0.10100000  0.39900000  0.00000000
Zn       Zn   0.75000000  0.89527000  0.39527000  0.00000000
Zn       Zn   0.60473000  0.75000000  0.10473000  0.00000000
Zn       Zn   0.39527000  0.10473000  0.75000000  0.00000000
Zn       Zn   0.60473000  0.25000000  0.89527000  0.00000000
Zn       Zn   0.89527000  0.39527000  0.75000000  0.00000000
Zn       Zn   0.10473000  0.75000000  0.39527000  0.00000000
Zn       Zn   0.25000000  0.10473000  0.39527000  0.00000000
Zn       Zn   0.10473000  0.25000000  0.60473000  0.00000000
Zn       Zn   0.10473000  0.60473000  0.75000000  0.00000000
Zn       Zn   0.25000000  0.89527000  0.60473000  0.00000000
Zn       Zn   0.75000000  0.60473000  0.89527000  0.00000000
Zn       Zn   0.60473000  0.89527000  0.75000000  0.00000000
Zn       Zn   0.25000000  0.39527000  0.89527000  0.00000000
Zn       Zn   0.89527000  0.25000000  0.39527000  0.00000000
Zn       Zn   0.75000000  0.39527000  0.10473000  0.00000000
Zn       Zn   0.39527000  0.75000000  0.89527000  0.00000000
Zn       Zn   0.39527000  0.25000000  0.10473000  0.00000000
Zn       Zn   0.89527000  0.75000000  0.60473000  0.00000000
Zn       Zn   0.39527000  0.89527000  0.25000000  0.00000000
Zn       Zn   0.25000000  0.60473000  0.10473000  0.00000000
Zn       Zn   0.10473000  0.39527000  0.25000000  0.00000000
Zn       Zn   0.89527000  0.60473000  0.25000000  0.00000000
Zn       Zn   0.60473000  0.10473000  0.25000000  0.00000000
Zn       Zn   0.75000000  0.10473000  0.60473000  0.00000000
