data_ZIF-93

_cell_length_a  24.55744936
_cell_length_b  24.55744936
_cell_length_c  24.55744936
_cell_angle_alpha  109.47122063
_cell_angle_beta  109.47122063
_cell_angle_gamma  109.47122063


_symmetry_space_group_name_Hall ' P 1'
_symmetry_space_group_name_H-M  'P 1'
_symmetry_Int_Tables_number     1

loop_
_atom_site_label
_atom_site_type_symbol
_atom_site_fract_x
_atom_site_fract_y
_atom_site_fract_z
_atom_site_charge
O        O    0.52780000  0.46290000  0.14950000  0.00000000
O        O    0.31340000  0.37830000  0.85050000  0.00000000
O        O    0.53710000  0.06490000  0.68660000  0.00000000
O        O    0.52780000  0.06490000  0.37830000  0.00000000
O        O    0.06490000  0.37830000  0.52780000  0.00000000
O        O    0.62170000  0.93510000  0.47220000  0.00000000
O        O    0.68660000  0.53710000  0.06490000  0.00000000
O        O    0.93510000  0.46290000  0.31340000  0.00000000
O        O    0.85050000  0.53710000  0.47220000  0.00000000
O        O    0.47220000  0.85050000  0.53710000  0.00000000
O        O    0.93510000  0.47220000  0.62170000  0.00000000
O        O    0.31340000  0.93510000  0.46290000  0.00000000
O        O    0.46290000  0.14950000  0.52780000  0.00000000
O        O    0.62170000  0.68660000  0.14950000  0.00000000
O        O    0.53710000  0.47220000  0.85050000  0.00000000
O        O    0.47220000  0.62170000  0.93510000  0.00000000
O        O    0.37830000  0.52780000  0.06490000  0.00000000
O        O    0.68660000  0.14950000  0.62170000  0.00000000
O        O    0.46290000  0.31340000  0.93510000  0.00000000
O        O    0.85050000  0.31340000  0.37830000  0.00000000
O        O    0.06490000  0.68660000  0.53710000  0.00000000
O        O    0.14950000  0.52780000  0.46290000  0.00000000
O        O    0.37830000  0.85050000  0.31340000  0.00000000
O        O    0.14950000  0.62170000  0.68660000  0.00000000
O        O    0.69600000  0.48150000  0.61430000  0.00000000
O        O    0.86720000  0.08170000  0.38570000  0.00000000
O        O    0.51850000  0.21450000  0.13280000  0.00000000
O        O    0.69600000  0.21450000  0.08170000  0.00000000
O        O    0.21450000  0.08170000  0.69600000  0.00000000
O        O    0.91830000  0.78550000  0.30400000  0.00000000
O        O    0.13280000  0.51850000  0.21450000  0.00000000
O        O    0.78550000  0.48150000  0.86720000  0.00000000
O        O    0.38570000  0.51850000  0.30400000  0.00000000
O        O    0.30400000  0.38570000  0.51850000  0.00000000
O        O    0.78550000  0.30400000  0.91830000  0.00000000
O        O    0.86720000  0.78550000  0.48150000  0.00000000
O        O    0.48150000  0.61430000  0.69600000  0.00000000
O        O    0.91830000  0.13280000  0.61430000  0.00000000
O        O    0.51850000  0.30400000  0.38570000  0.00000000
O        O    0.30400000  0.91830000  0.78550000  0.00000000
O        O    0.08170000  0.69600000  0.21450000  0.00000000
O        O    0.13280000  0.61430000  0.91830000  0.00000000
O        O    0.48150000  0.86720000  0.78550000  0.00000000
O        O    0.38570000  0.86720000  0.08170000  0.00000000
O        O    0.21450000  0.13280000  0.51850000  0.00000000
O        O    0.61430000  0.69600000  0.48150000  0.00000000
O        O    0.08170000  0.38570000  0.86720000  0.00000000
O        O    0.61430000  0.91830000  0.13280000  0.00000000
C        C    0.63760000  0.38240000  0.25320000  0.00000000
C        C    0.12920000  0.38440000  0.74680000  0.00000000
C        C    0.61760000  0.25520000  0.87080000  0.00000000
C        C    0.63760000  0.25520000  0.38440000  0.00000000
C        C    0.25520000  0.38440000  0.63760000  0.00000000
C        C    0.61560000  0.74480000  0.36240000  0.00000000
C        C    0.87080000  0.61760000  0.25520000  0.00000000
C        C    0.74480000  0.38240000  0.12920000  0.00000000
C        C    0.74680000  0.61760000  0.36240000  0.00000000
C        C    0.36240000  0.74680000  0.61760000  0.00000000
C        C    0.74480000  0.36240000  0.61560000  0.00000000
C        C    0.12920000  0.74480000  0.38240000  0.00000000
C        C    0.38240000  0.25320000  0.63760000  0.00000000
C        C    0.61560000  0.87080000  0.25320000  0.00000000
C        C    0.61760000  0.36240000  0.74680000  0.00000000
C        C    0.36240000  0.61560000  0.74480000  0.00000000
C        C    0.38440000  0.63760000  0.25520000  0.00000000
C        C    0.87080000  0.25320000  0.61560000  0.00000000
C        C    0.38240000  0.12920000  0.74480000  0.00000000
C        C    0.74680000  0.12920000  0.38440000  0.00000000
C        C    0.25520000  0.87080000  0.61760000  0.00000000
C        C    0.25320000  0.63760000  0.38240000  0.00000000
C        C    0.38440000  0.74680000  0.12920000  0.00000000
C        C    0.25320000  0.61560000  0.87080000  0.00000000
C        C    0.59090000  0.42780000  0.20890000  0.00000000
C        C    0.21890000  0.38200000  0.79110000  0.00000000
C        C    0.57220000  0.16310000  0.78110000  0.00000000
C        C    0.59090000  0.16310000  0.38200000  0.00000000
C        C    0.16310000  0.38200000  0.59090000  0.00000000
C        C    0.61800000  0.83690000  0.40910000  0.00000000
C        C    0.78110000  0.57220000  0.16310000  0.00000000
C        C    0.83690000  0.42780000  0.21890000  0.00000000
C        C    0.79110000  0.57220000  0.40910000  0.00000000
C        C    0.40910000  0.79110000  0.57220000  0.00000000
C        C    0.83690000  0.40910000  0.61800000  0.00000000
C        C    0.21890000  0.83690000  0.42780000  0.00000000
C        C    0.42780000  0.20890000  0.59090000  0.00000000
C        C    0.61800000  0.78110000  0.20890000  0.00000000
C        C    0.57220000  0.40910000  0.79110000  0.00000000
C        C    0.40910000  0.61800000  0.83690000  0.00000000
C        C    0.38200000  0.59090000  0.16310000  0.00000000
C        C    0.78110000  0.20890000  0.61800000  0.00000000
C        C    0.42780000  0.21890000  0.83690000  0.00000000
C        C    0.79110000  0.21890000  0.38200000  0.00000000
C        C    0.16310000  0.78110000  0.57220000  0.00000000
C        C    0.20890000  0.59090000  0.42780000  0.00000000
C        C    0.38200000  0.79110000  0.21890000  0.00000000
C        C    0.20890000  0.61800000  0.78110000  0.00000000
C        C    0.57170000  0.47690000  0.20220000  0.00000000
C        C    0.27470000  0.36950000  0.79780000  0.00000000
C        C    0.52310000  0.09480000  0.72530000  0.00000000
C        C    0.57170000  0.09480000  0.36950000  0.00000000
C        C    0.09480000  0.36950000  0.57170000  0.00000000
C        C    0.63050000  0.90520000  0.42830000  0.00000000
C        C    0.72530000  0.52310000  0.09480000  0.00000000
C        C    0.90520000  0.47690000  0.27470000  0.00000000
C        C    0.79780000  0.52310000  0.42830000  0.00000000
C        C    0.42830000  0.79780000  0.52310000  0.00000000
C        C    0.90520000  0.42830000  0.63050000  0.00000000
C        C    0.27470000  0.90520000  0.47690000  0.00000000
C        C    0.47690000  0.20220000  0.57170000  0.00000000
C        C    0.63050000  0.72530000  0.20220000  0.00000000
C        C    0.52310000  0.42830000  0.79780000  0.00000000
C        C    0.42830000  0.63050000  0.90520000  0.00000000
C        C    0.36950000  0.57170000  0.09480000  0.00000000
C        C    0.72530000  0.20220000  0.63050000  0.00000000
C        C    0.47690000  0.27470000  0.90520000  0.00000000
C        C    0.79780000  0.27470000  0.36950000  0.00000000
C        C    0.09480000  0.72530000  0.52310000  0.00000000
C        C    0.20220000  0.57170000  0.47690000  0.00000000
C        C    0.36950000  0.79780000  0.27470000  0.00000000
C        C    0.20220000  0.63050000  0.72530000  0.00000000
C        C    0.58890000  0.37730000  0.16000000  0.00000000
C        C    0.21730000  0.42890000  0.84000000  0.00000000
C        C    0.62270000  0.21160000  0.78270000  0.00000000
C        C    0.58890000  0.21160000  0.42890000  0.00000000
C        C    0.21160000  0.42890000  0.58890000  0.00000000
C        C    0.57110000  0.78840000  0.41110000  0.00000000
C        C    0.78270000  0.62270000  0.21160000  0.00000000
C        C    0.78840000  0.37730000  0.21730000  0.00000000
C        C    0.84000000  0.62270000  0.41110000  0.00000000
C        C    0.41110000  0.84000000  0.62270000  0.00000000
C        C    0.78840000  0.41110000  0.57110000  0.00000000
C        C    0.21730000  0.78840000  0.37730000  0.00000000
C        C    0.37730000  0.16000000  0.58890000  0.00000000
C        C    0.57110000  0.78270000  0.16000000  0.00000000
C        C    0.62270000  0.41110000  0.84000000  0.00000000
C        C    0.41110000  0.57110000  0.78840000  0.00000000
C        C    0.42890000  0.58890000  0.21160000  0.00000000
C        C    0.78270000  0.16000000  0.57110000  0.00000000
C        C    0.37730000  0.21730000  0.78840000  0.00000000
C        C    0.84000000  0.21730000  0.42890000  0.00000000
C        C    0.21160000  0.78270000  0.62270000  0.00000000
C        C    0.16000000  0.58890000  0.37730000  0.00000000
C        C    0.42890000  0.84000000  0.21730000  0.00000000
C        C    0.16000000  0.57110000  0.78270000  0.00000000
C        C    0.56810000  0.36230000  0.08960000  0.00000000
C        C    0.27270000  0.47850000  0.91040000  0.00000000
C        C    0.63770000  0.20580000  0.72730000  0.00000000
C        C    0.56810000  0.20580000  0.47850000  0.00000000
C        C    0.20580000  0.47850000  0.56810000  0.00000000
C        C    0.52150000  0.79420000  0.43190000  0.00000000
C        C    0.72730000  0.63770000  0.20580000  0.00000000
C        C    0.79420000  0.36230000  0.27270000  0.00000000
C        C    0.91040000  0.63770000  0.43190000  0.00000000
C        C    0.43190000  0.91040000  0.63770000  0.00000000
C        C    0.79420000  0.43190000  0.52150000  0.00000000
C        C    0.27270000  0.79420000  0.36230000  0.00000000
C        C    0.36230000  0.08960000  0.56810000  0.00000000
C        C    0.52150000  0.72730000  0.08960000  0.00000000
C        C    0.63770000  0.43190000  0.91040000  0.00000000
C        C    0.43190000  0.52150000  0.79420000  0.00000000
C        C    0.47850000  0.56810000  0.20580000  0.00000000
C        C    0.72730000  0.08960000  0.52150000  0.00000000
C        C    0.36230000  0.27270000  0.79420000  0.00000000
C        C    0.91040000  0.27270000  0.47850000  0.00000000
C        C    0.20580000  0.72730000  0.63770000  0.00000000
C        C    0.08960000  0.56810000  0.36230000  0.00000000
C        C    0.47850000  0.91040000  0.27270000  0.00000000
C        C    0.08960000  0.52150000  0.72730000  0.00000000
C        C    0.64450000  0.41620000  0.41530000  0.00000000
C        C    0.00090000  0.22920000  0.58470000  0.00000000
C        C    0.58380000  0.22830000  0.99910000  0.00000000
C        C    0.64450000  0.22830000  0.22920000  0.00000000
C        C    0.22830000  0.22920000  0.64450000  0.00000000
C        C    0.77080000  0.77170000  0.35550000  0.00000000
C        C    0.99910000  0.58380000  0.22830000  0.00000000
C        C    0.77170000  0.41620000  0.00090000  0.00000000
C        C    0.58470000  0.58380000  0.35550000  0.00000000
C        C    0.35550000  0.58470000  0.58380000  0.00000000
C        C    0.77170000  0.35550000  0.77080000  0.00000000
C        C    0.00090000  0.77170000  0.41620000  0.00000000
C        C    0.41620000  0.41530000  0.64450000  0.00000000
C        C    0.77080000  0.99910000  0.41530000  0.00000000
C        C    0.58380000  0.35550000  0.58470000  0.00000000
C        C    0.35550000  0.77080000  0.77170000  0.00000000
C        C    0.22920000  0.64450000  0.22830000  0.00000000
C        C    0.99910000  0.41530000  0.77080000  0.00000000
C        C    0.41620000  0.00090000  0.77170000  0.00000000
C        C    0.58470000  0.00090000  0.22920000  0.00000000
C        C    0.22830000  0.99910000  0.58380000  0.00000000
C        C    0.41530000  0.64450000  0.41620000  0.00000000
C        C    0.22920000  0.58470000  0.00090000  0.00000000
C        C    0.41530000  0.77080000  0.99910000  0.00000000
C        C    0.67630000  0.51750000  0.48020000  0.00000000
C        C    0.03730000  0.19610000  0.51980000  0.00000000
C        C    0.48250000  0.15880000  0.96270000  0.00000000
C        C    0.67630000  0.15880000  0.19610000  0.00000000
C        C    0.15880000  0.19610000  0.67630000  0.00000000
C        C    0.80390000  0.84120000  0.32370000  0.00000000
C        C    0.96270000  0.48250000  0.15880000  0.00000000
C        C    0.84120000  0.51750000  0.03730000  0.00000000
C        C    0.51980000  0.48250000  0.32370000  0.00000000
C        C    0.32370000  0.51980000  0.48250000  0.00000000
C        C    0.84120000  0.32370000  0.80390000  0.00000000
C        C    0.03730000  0.84120000  0.51750000  0.00000000
C        C    0.51750000  0.48020000  0.67630000  0.00000000
C        C    0.80390000  0.96270000  0.48020000  0.00000000
C        C    0.48250000  0.32370000  0.51980000  0.00000000
C        C    0.32370000  0.80390000  0.84120000  0.00000000
C        C    0.19610000  0.67630000  0.15880000  0.00000000
C        C    0.96270000  0.48020000  0.80390000  0.00000000
C        C    0.51750000  0.03730000  0.84120000  0.00000000
C        C    0.51980000  0.03730000  0.19610000  0.00000000
C        C    0.15880000  0.96270000  0.48250000  0.00000000
C        C    0.48020000  0.67630000  0.51750000  0.00000000
C        C    0.19610000  0.51980000  0.03730000  0.00000000
C        C    0.48020000  0.80390000  0.96270000  0.00000000
C        C    0.69550000  0.58940000  0.50630000  0.00000000
C        C    0.08310000  0.18920000  0.49370000  0.00000000
C        C    0.41060000  0.10610000  0.91690000  0.00000000
C        C    0.69550000  0.10610000  0.18920000  0.00000000
C        C    0.10610000  0.18920000  0.69550000  0.00000000
C        C    0.81080000  0.89390000  0.30450000  0.00000000
C        C    0.91690000  0.41060000  0.10610000  0.00000000
C        C    0.89390000  0.58940000  0.08310000  0.00000000
C        C    0.49370000  0.41060000  0.30450000  0.00000000
C        C    0.30450000  0.49370000  0.41060000  0.00000000
C        C    0.89390000  0.30450000  0.81080000  0.00000000
C        C    0.08310000  0.89390000  0.58940000  0.00000000
C        C    0.58940000  0.50630000  0.69550000  0.00000000
C        C    0.81080000  0.91690000  0.50630000  0.00000000
C        C    0.41060000  0.30450000  0.49370000  0.00000000
C        C    0.30450000  0.81080000  0.89390000  0.00000000
C        C    0.18920000  0.69550000  0.10610000  0.00000000
C        C    0.91690000  0.50630000  0.81080000  0.00000000
C        C    0.58940000  0.08310000  0.89390000  0.00000000
C        C    0.49370000  0.08310000  0.18920000  0.00000000
C        C    0.10610000  0.91690000  0.41060000  0.00000000
C        C    0.50630000  0.69550000  0.58940000  0.00000000
C        C    0.18920000  0.49370000  0.08310000  0.00000000
C        C    0.50630000  0.81080000  0.91690000  0.00000000
C        C    0.67530000  0.48420000  0.51530000  0.00000000
C        C    0.96890000  0.16000000  0.48470000  0.00000000
C        C    0.51580000  0.19110000  0.03110000  0.00000000
C        C    0.67530000  0.19110000  0.16000000  0.00000000
C        C    0.19110000  0.16000000  0.67530000  0.00000000
C        C    0.84000000  0.80890000  0.32470000  0.00000000
C        C    0.03110000  0.51580000  0.19110000  0.00000000
C        C    0.80890000  0.48420000  0.96890000  0.00000000
C        C    0.48470000  0.51580000  0.32470000  0.00000000
C        C    0.32470000  0.48470000  0.51580000  0.00000000
C        C    0.80890000  0.32470000  0.84000000  0.00000000
C        C    0.96890000  0.80890000  0.48420000  0.00000000
C        C    0.48420000  0.51530000  0.67530000  0.00000000
C        C    0.84000000  0.03110000  0.51530000  0.00000000
C        C    0.51580000  0.32470000  0.48470000  0.00000000
C        C    0.32470000  0.84000000  0.80890000  0.00000000
C        C    0.16000000  0.67530000  0.19110000  0.00000000
C        C    0.03110000  0.51530000  0.84000000  0.00000000
C        C    0.48420000  0.96890000  0.80890000  0.00000000
C        C    0.48470000  0.96890000  0.16000000  0.00000000
C        C    0.19110000  0.03110000  0.51580000  0.00000000
C        C    0.51530000  0.67530000  0.48420000  0.00000000
C        C    0.16000000  0.48470000  0.96890000  0.00000000
C        C    0.51530000  0.84000000  0.03110000  0.00000000
C        C    0.69380000  0.51360000  0.58600000  0.00000000
C        C    0.92760000  0.10780000  0.41400000  0.00000000
C        C    0.48640000  0.18020000  0.07240000  0.00000000
C        C    0.69380000  0.18020000  0.10780000  0.00000000
C        C    0.18020000  0.10780000  0.69380000  0.00000000
C        C    0.89220000  0.81980000  0.30620000  0.00000000
C        C    0.07240000  0.48640000  0.18020000  0.00000000
C        C    0.81980000  0.51360000  0.92760000  0.00000000
C        C    0.41400000  0.48640000  0.30620000  0.00000000
C        C    0.30620000  0.41400000  0.48640000  0.00000000
C        C    0.81980000  0.30620000  0.89220000  0.00000000
C        C    0.92760000  0.81980000  0.51360000  0.00000000
C        C    0.51360000  0.58600000  0.69380000  0.00000000
C        C    0.89220000  0.07240000  0.58600000  0.00000000
C        C    0.48640000  0.30620000  0.41400000  0.00000000
C        C    0.30620000  0.89220000  0.81980000  0.00000000
C        C    0.10780000  0.69380000  0.18020000  0.00000000
C        C    0.07240000  0.58600000  0.89220000  0.00000000
C        C    0.51360000  0.92760000  0.81980000  0.00000000
C        C    0.41400000  0.92760000  0.10780000  0.00000000
C        C    0.18020000  0.07240000  0.48640000  0.00000000
C        C    0.58600000  0.69380000  0.51360000  0.00000000
C        C    0.10780000  0.41400000  0.92760000  0.00000000
C        C    0.58600000  0.89220000  0.07240000  0.00000000
N        N    0.62110000  0.43050000  0.26740000  0.00000000
N        N    0.16310000  0.35370000  0.73260000  0.00000000
N        N    0.56950000  0.19060000  0.83690000  0.00000000
N        N    0.62110000  0.19060000  0.35370000  0.00000000
N        N    0.19060000  0.35370000  0.62110000  0.00000000
N        N    0.64630000  0.80940000  0.37890000  0.00000000
N        N    0.83690000  0.56950000  0.19060000  0.00000000
N        N    0.80940000  0.43050000  0.16310000  0.00000000
N        N    0.73260000  0.56950000  0.37890000  0.00000000
N        N    0.37890000  0.73260000  0.56950000  0.00000000
N        N    0.80940000  0.37890000  0.64630000  0.00000000
N        N    0.16310000  0.80940000  0.43050000  0.00000000
N        N    0.43050000  0.26740000  0.62110000  0.00000000
N        N    0.64630000  0.83690000  0.26740000  0.00000000
N        N    0.56950000  0.37890000  0.73260000  0.00000000
N        N    0.37890000  0.64630000  0.80940000  0.00000000
N        N    0.35370000  0.62110000  0.19060000  0.00000000
N        N    0.83690000  0.26740000  0.64630000  0.00000000
N        N    0.43050000  0.16310000  0.80940000  0.00000000
N        N    0.73260000  0.16310000  0.35370000  0.00000000
N        N    0.19060000  0.83690000  0.56950000  0.00000000
N        N    0.26740000  0.62110000  0.43050000  0.00000000
N        N    0.35370000  0.73260000  0.16310000  0.00000000
N        N    0.26740000  0.64630000  0.83690000  0.00000000
N        N    0.61840000  0.34880000  0.18800000  0.00000000
N        N    0.16080000  0.43040000  0.81200000  0.00000000
N        N    0.65120000  0.26960000  0.83920000  0.00000000
N        N    0.61840000  0.26960000  0.43040000  0.00000000
N        N    0.26960000  0.43040000  0.61840000  0.00000000
N        N    0.56960000  0.73040000  0.38160000  0.00000000
N        N    0.83920000  0.65120000  0.26960000  0.00000000
N        N    0.73040000  0.34880000  0.16080000  0.00000000
N        N    0.81200000  0.65120000  0.38160000  0.00000000
N        N    0.38160000  0.81200000  0.65120000  0.00000000
N        N    0.73040000  0.38160000  0.56960000  0.00000000
N        N    0.16080000  0.73040000  0.34880000  0.00000000
N        N    0.34880000  0.18800000  0.61840000  0.00000000
N        N    0.56960000  0.83920000  0.18800000  0.00000000
N        N    0.65120000  0.38160000  0.81200000  0.00000000
N        N    0.38160000  0.56960000  0.73040000  0.00000000
N        N    0.43040000  0.61840000  0.26960000  0.00000000
N        N    0.83920000  0.18800000  0.56960000  0.00000000
N        N    0.34880000  0.16080000  0.73040000  0.00000000
N        N    0.81200000  0.16080000  0.43040000  0.00000000
N        N    0.26960000  0.83920000  0.65120000  0.00000000
N        N    0.18800000  0.61840000  0.34880000  0.00000000
N        N    0.43040000  0.81200000  0.16080000  0.00000000
N        N    0.18800000  0.56960000  0.83920000  0.00000000
N        N    0.65540000  0.42020000  0.47460000  0.00000000
N        N    0.94560000  0.18080000  0.52540000  0.00000000
N        N    0.57980000  0.23520000  0.05440000  0.00000000
N        N    0.65540000  0.23520000  0.18080000  0.00000000
N        N    0.23520000  0.18080000  0.65540000  0.00000000
N        N    0.81920000  0.76480000  0.34460000  0.00000000
N        N    0.05440000  0.57980000  0.23520000  0.00000000
N        N    0.76480000  0.42020000  0.94560000  0.00000000
N        N    0.52540000  0.57980000  0.34460000  0.00000000
N        N    0.34460000  0.52540000  0.57980000  0.00000000
N        N    0.76480000  0.34460000  0.81920000  0.00000000
N        N    0.94560000  0.76480000  0.42020000  0.00000000
N        N    0.42020000  0.47460000  0.65540000  0.00000000
N        N    0.81920000  0.05440000  0.47460000  0.00000000
N        N    0.57980000  0.34460000  0.52540000  0.00000000
N        N    0.34460000  0.81920000  0.76480000  0.00000000
N        N    0.18080000  0.65540000  0.23520000  0.00000000
N        N    0.05440000  0.47460000  0.81920000  0.00000000
N        N    0.42020000  0.94560000  0.76480000  0.00000000
N        N    0.52540000  0.94560000  0.18080000  0.00000000
N        N    0.23520000  0.05440000  0.57980000  0.00000000
N        N    0.47460000  0.65540000  0.42020000  0.00000000
N        N    0.18080000  0.52540000  0.94560000  0.00000000
N        N    0.47460000  0.81920000  0.05440000  0.00000000
N        N    0.65700000  0.47490000  0.41730000  0.00000000
N        N    0.05760000  0.23970000  0.58270000  0.00000000
N        N    0.52510000  0.18210000  0.94240000  0.00000000
N        N    0.65700000  0.18210000  0.23970000  0.00000000
N        N    0.18210000  0.23970000  0.65700000  0.00000000
N        N    0.76030000  0.81790000  0.34300000  0.00000000
N        N    0.94240000  0.52510000  0.18210000  0.00000000
N        N    0.81790000  0.47490000  0.05760000  0.00000000
N        N    0.58270000  0.52510000  0.34300000  0.00000000
N        N    0.34300000  0.58270000  0.52510000  0.00000000
N        N    0.81790000  0.34300000  0.76030000  0.00000000
N        N    0.05760000  0.81790000  0.47490000  0.00000000
N        N    0.47490000  0.41730000  0.65700000  0.00000000
N        N    0.76030000  0.94240000  0.41730000  0.00000000
N        N    0.52510000  0.34300000  0.58270000  0.00000000
N        N    0.34300000  0.76030000  0.81790000  0.00000000
N        N    0.23970000  0.65700000  0.18210000  0.00000000
N        N    0.94240000  0.41730000  0.76030000  0.00000000
N        N    0.47490000  0.05760000  0.81790000  0.00000000
N        N    0.58270000  0.05760000  0.23970000  0.00000000
N        N    0.18210000  0.94240000  0.52510000  0.00000000
N        N    0.41730000  0.65700000  0.47490000  0.00000000
N        N    0.23970000  0.58270000  0.05760000  0.00000000
N        N    0.41730000  0.76030000  0.94240000  0.00000000
H        H    0.66484000  0.37398000  0.29452000  0.00000000
H        H    0.07946000  0.37032000  0.70548000  0.00000000
H        H    0.62602000  0.29086000  0.92054000  0.00000000
H        H    0.66484000  0.29086000  0.37032000  0.00000000
H        H    0.29086000  0.37032000  0.66484000  0.00000000
H        H    0.62968000  0.70914000  0.33516000  0.00000000
H        H    0.92054000  0.62602000  0.29086000  0.00000000
H        H    0.70914000  0.37398000  0.07946000  0.00000000
H        H    0.70548000  0.62602000  0.33516000  0.00000000
H        H    0.33516000  0.70548000  0.62602000  0.00000000
H        H    0.70914000  0.33516000  0.62968000  0.00000000
H        H    0.07946000  0.70914000  0.37398000  0.00000000
H        H    0.37398000  0.29452000  0.66484000  0.00000000
H        H    0.62968000  0.92054000  0.29452000  0.00000000
H        H    0.62602000  0.33516000  0.70548000  0.00000000
H        H    0.33516000  0.62968000  0.70914000  0.00000000
H        H    0.37032000  0.66484000  0.29086000  0.00000000
H        H    0.92054000  0.29452000  0.62968000  0.00000000
H        H    0.37398000  0.07946000  0.70914000  0.00000000
H        H    0.70548000  0.07946000  0.37032000  0.00000000
H        H    0.29086000  0.92054000  0.62602000  0.00000000
H        H    0.29452000  0.66484000  0.37398000  0.00000000
H        H    0.37032000  0.70548000  0.07946000  0.00000000
H        H    0.29452000  0.62968000  0.92054000  0.00000000
H        H    0.59807000  0.52908000  0.24681000  0.00000000
H        H    0.28227000  0.35126000  0.75319000  0.00000000
H        H    0.47092000  0.06899000  0.71773000  0.00000000
H        H    0.59807000  0.06899000  0.35126000  0.00000000
H        H    0.06899000  0.35126000  0.59807000  0.00000000
H        H    0.64874000  0.93101000  0.40193000  0.00000000
H        H    0.71773000  0.47092000  0.06899000  0.00000000
H        H    0.93101000  0.52908000  0.28227000  0.00000000
H        H    0.75319000  0.47092000  0.40193000  0.00000000
H        H    0.40193000  0.75319000  0.47092000  0.00000000
H        H    0.93101000  0.40193000  0.64874000  0.00000000
H        H    0.28227000  0.93101000  0.52908000  0.00000000
H        H    0.52908000  0.24681000  0.59807000  0.00000000
H        H    0.64874000  0.71773000  0.24681000  0.00000000
H        H    0.47092000  0.40193000  0.75319000  0.00000000
H        H    0.40193000  0.64874000  0.93101000  0.00000000
H        H    0.35126000  0.59807000  0.06899000  0.00000000
H        H    0.71773000  0.24681000  0.64874000  0.00000000
H        H    0.52908000  0.28227000  0.93101000  0.00000000
H        H    0.75319000  0.28227000  0.35126000  0.00000000
H        H    0.06899000  0.71773000  0.47092000  0.00000000
H        H    0.24681000  0.59807000  0.52908000  0.00000000
H        H    0.35126000  0.75319000  0.28227000  0.00000000
H        H    0.24681000  0.64874000  0.71773000  0.00000000
H        H    0.51252000  0.32441000  0.05617000  0.00000000
H        H    0.26824000  0.45635000  0.94383000  0.00000000
H        H    0.67559000  0.18811000  0.73176000  0.00000000
H        H    0.51252000  0.18811000  0.45635000  0.00000000
H        H    0.18811000  0.45635000  0.51252000  0.00000000
H        H    0.54365000  0.81189000  0.48748000  0.00000000
H        H    0.73176000  0.67559000  0.18811000  0.00000000
H        H    0.81189000  0.32441000  0.26824000  0.00000000
H        H    0.94383000  0.67559000  0.48748000  0.00000000
H        H    0.48748000  0.94383000  0.67559000  0.00000000
H        H    0.81189000  0.48748000  0.54365000  0.00000000
H        H    0.26824000  0.81189000  0.32441000  0.00000000
H        H    0.32441000  0.05617000  0.51252000  0.00000000
H        H    0.54365000  0.73176000  0.05617000  0.00000000
H        H    0.67559000  0.48748000  0.94383000  0.00000000
H        H    0.48748000  0.54365000  0.81189000  0.00000000
H        H    0.45635000  0.51252000  0.18811000  0.00000000
H        H    0.73176000  0.05617000  0.54365000  0.00000000
H        H    0.32441000  0.26824000  0.81189000  0.00000000
H        H    0.94383000  0.26824000  0.45635000  0.00000000
H        H    0.18811000  0.73176000  0.67559000  0.00000000
H        H    0.05617000  0.51252000  0.32441000  0.00000000
H        H    0.45635000  0.94383000  0.26824000  0.00000000
H        H    0.05617000  0.54365000  0.73176000  0.00000000
H        H    0.59748000  0.34094000  0.07168000  0.00000000
H        H    0.26926000  0.52580000  0.92832000  0.00000000
H        H    0.65906000  0.25654000  0.73074000  0.00000000
H        H    0.59748000  0.25654000  0.52580000  0.00000000
H        H    0.25654000  0.52580000  0.59748000  0.00000000
H        H    0.47420000  0.74346000  0.40252000  0.00000000
H        H    0.73074000  0.65906000  0.25654000  0.00000000
H        H    0.74346000  0.34094000  0.26926000  0.00000000
H        H    0.92832000  0.65906000  0.40252000  0.00000000
H        H    0.40252000  0.92832000  0.65906000  0.00000000
H        H    0.74346000  0.40252000  0.47420000  0.00000000
H        H    0.26926000  0.74346000  0.34094000  0.00000000
H        H    0.34094000  0.07168000  0.59748000  0.00000000
H        H    0.47420000  0.73074000  0.07168000  0.00000000
H        H    0.65906000  0.40252000  0.92832000  0.00000000
H        H    0.40252000  0.47420000  0.74346000  0.00000000
H        H    0.52580000  0.59748000  0.25654000  0.00000000
H        H    0.73074000  0.07168000  0.47420000  0.00000000
H        H    0.34094000  0.26926000  0.74346000  0.00000000
H        H    0.92832000  0.26926000  0.52580000  0.00000000
H        H    0.25654000  0.73074000  0.65906000  0.00000000
H        H    0.07168000  0.59748000  0.34094000  0.00000000
H        H    0.52580000  0.92832000  0.26926000  0.00000000
H        H    0.07168000  0.47420000  0.73074000  0.00000000
H        H    0.57847000  0.41013000  0.08740000  0.00000000
H        H    0.32273000  0.49107000  0.91260000  0.00000000
H        H    0.58987000  0.16834000  0.67727000  0.00000000
H        H    0.57847000  0.16834000  0.49107000  0.00000000
H        H    0.16834000  0.49107000  0.57847000  0.00000000
H        H    0.50893000  0.83166000  0.42153000  0.00000000
H        H    0.67727000  0.58987000  0.16834000  0.00000000
H        H    0.83166000  0.41013000  0.32273000  0.00000000
H        H    0.91260000  0.58987000  0.42153000  0.00000000
H        H    0.42153000  0.91260000  0.58987000  0.00000000
H        H    0.83166000  0.42153000  0.50893000  0.00000000
H        H    0.32273000  0.83166000  0.41013000  0.00000000
H        H    0.41013000  0.08740000  0.57847000  0.00000000
H        H    0.50893000  0.67727000  0.08740000  0.00000000
H        H    0.58987000  0.42153000  0.91260000  0.00000000
H        H    0.42153000  0.50893000  0.83166000  0.00000000
H        H    0.49107000  0.57847000  0.16834000  0.00000000
H        H    0.67727000  0.08740000  0.50893000  0.00000000
H        H    0.41013000  0.32273000  0.83166000  0.00000000
H        H    0.91260000  0.32273000  0.49107000  0.00000000
H        H    0.16834000  0.67727000  0.58987000  0.00000000
H        H    0.08740000  0.57847000  0.41013000  0.00000000
H        H    0.49107000  0.91260000  0.32273000  0.00000000
H        H    0.08740000  0.50893000  0.67727000  0.00000000
H        H    0.62672000  0.36685000  0.37081000  0.00000000
H        H    0.99604000  0.25591000  0.62919000  0.00000000
H        H    0.63315000  0.25987000  0.00396000  0.00000000
H        H    0.62672000  0.25987000  0.25591000  0.00000000
H        H    0.25987000  0.25591000  0.62672000  0.00000000
H        H    0.74409000  0.74013000  0.37328000  0.00000000
H        H    0.00396000  0.63315000  0.25987000  0.00000000
H        H    0.74013000  0.36685000  0.99604000  0.00000000
H        H    0.62919000  0.63315000  0.37328000  0.00000000
H        H    0.37328000  0.62919000  0.63315000  0.00000000
H        H    0.74013000  0.37328000  0.74409000  0.00000000
H        H    0.99604000  0.74013000  0.36685000  0.00000000
H        H    0.36685000  0.37081000  0.62672000  0.00000000
H        H    0.74409000  0.00396000  0.37081000  0.00000000
H        H    0.63315000  0.37328000  0.62919000  0.00000000
H        H    0.37328000  0.74409000  0.74013000  0.00000000
H        H    0.25591000  0.62672000  0.25987000  0.00000000
H        H    0.00396000  0.37081000  0.74409000  0.00000000
H        H    0.36685000  0.99604000  0.74013000  0.00000000
H        H    0.62919000  0.99604000  0.25591000  0.00000000
H        H    0.25987000  0.00396000  0.63315000  0.00000000
H        H    0.37081000  0.62672000  0.36685000  0.00000000
H        H    0.25591000  0.62919000  0.99604000  0.00000000
H        H    0.37081000  0.74409000  0.00396000  0.00000000
H        H    0.65423000  0.59672000  0.51301000  0.00000000
H        H    0.08371000  0.14122000  0.48699000  0.00000000
H        H    0.40328000  0.05751000  0.91629000  0.00000000
H        H    0.65423000  0.05751000  0.14122000  0.00000000
H        H    0.05751000  0.14122000  0.65423000  0.00000000
H        H    0.85878000  0.94249000  0.34577000  0.00000000
H        H    0.91629000  0.40328000  0.05751000  0.00000000
H        H    0.94249000  0.59672000  0.08371000  0.00000000
H        H    0.48699000  0.40328000  0.34577000  0.00000000
H        H    0.34577000  0.48699000  0.40328000  0.00000000
H        H    0.94249000  0.34577000  0.85878000  0.00000000
H        H    0.08371000  0.94249000  0.59672000  0.00000000
H        H    0.59672000  0.51301000  0.65423000  0.00000000
H        H    0.85878000  0.91629000  0.51301000  0.00000000
H        H    0.40328000  0.34577000  0.48699000  0.00000000
H        H    0.34577000  0.85878000  0.94249000  0.00000000
H        H    0.14122000  0.65423000  0.05751000  0.00000000
H        H    0.91629000  0.51301000  0.85878000  0.00000000
H        H    0.59672000  0.08371000  0.94249000  0.00000000
H        H    0.48699000  0.08371000  0.14122000  0.00000000
H        H    0.05751000  0.91629000  0.40328000  0.00000000
H        H    0.51301000  0.65423000  0.59672000  0.00000000
H        H    0.14122000  0.48699000  0.08371000  0.00000000
H        H    0.51301000  0.85878000  0.91629000  0.00000000
H        H    0.70307000  0.60503000  0.46940000  0.00000000
H        H    0.13563000  0.23367000  0.53060000  0.00000000
H        H    0.39497000  0.09804000  0.86437000  0.00000000
H        H    0.70307000  0.09804000  0.23367000  0.00000000
H        H    0.09804000  0.23367000  0.70307000  0.00000000
H        H    0.76633000  0.90196000  0.29693000  0.00000000
H        H    0.86437000  0.39497000  0.09804000  0.00000000
H        H    0.90196000  0.60503000  0.13563000  0.00000000
H        H    0.53060000  0.39497000  0.29693000  0.00000000
H        H    0.29693000  0.53060000  0.39497000  0.00000000
H        H    0.90196000  0.29693000  0.76633000  0.00000000
H        H    0.13563000  0.90196000  0.60503000  0.00000000
H        H    0.60503000  0.46940000  0.70307000  0.00000000
H        H    0.76633000  0.86437000  0.46940000  0.00000000
H        H    0.39497000  0.29693000  0.53060000  0.00000000
H        H    0.29693000  0.76633000  0.90196000  0.00000000
H        H    0.23367000  0.70307000  0.09804000  0.00000000
H        H    0.86437000  0.46940000  0.76633000  0.00000000
H        H    0.60503000  0.13563000  0.90196000  0.00000000
H        H    0.53060000  0.13563000  0.23367000  0.00000000
H        H    0.09804000  0.86437000  0.39497000  0.00000000
H        H    0.46940000  0.70307000  0.60503000  0.00000000
H        H    0.23367000  0.53060000  0.13563000  0.00000000
H        H    0.46940000  0.76633000  0.86437000  0.00000000
H        H    0.74382000  0.62122000  0.55638000  0.00000000
H        H    0.06484000  0.18744000  0.44362000  0.00000000
H        H    0.37878000  0.12260000  0.93516000  0.00000000
H        H    0.74382000  0.12260000  0.18744000  0.00000000
H        H    0.12260000  0.18744000  0.74382000  0.00000000
H        H    0.81256000  0.87740000  0.25618000  0.00000000
H        H    0.93516000  0.37878000  0.12260000  0.00000000
H        H    0.87740000  0.62122000  0.06484000  0.00000000
H        H    0.44362000  0.37878000  0.25618000  0.00000000
H        H    0.25618000  0.44362000  0.37878000  0.00000000
H        H    0.87740000  0.25618000  0.81256000  0.00000000
H        H    0.06484000  0.87740000  0.62122000  0.00000000
H        H    0.62122000  0.55638000  0.74382000  0.00000000
H        H    0.81256000  0.93516000  0.55638000  0.00000000
H        H    0.37878000  0.25618000  0.44362000  0.00000000
H        H    0.25618000  0.81256000  0.87740000  0.00000000
H        H    0.18744000  0.74382000  0.12260000  0.00000000
H        H    0.93516000  0.55638000  0.81256000  0.00000000
H        H    0.62122000  0.06484000  0.87740000  0.00000000
H        H    0.44362000  0.06484000  0.18744000  0.00000000
H        H    0.12260000  0.93516000  0.37878000  0.00000000
H        H    0.55638000  0.74382000  0.62122000  0.00000000
H        H    0.18744000  0.44362000  0.06484000  0.00000000
H        H    0.55638000  0.81256000  0.93516000  0.00000000
H        H    0.70635000  0.56731000  0.61512000  0.00000000
H        H    0.95219000  0.09123000  0.38488000  0.00000000
H        H    0.43269000  0.13904000  0.04781000  0.00000000
H        H    0.70635000  0.13904000  0.09123000  0.00000000
H        H    0.13904000  0.09123000  0.70635000  0.00000000
H        H    0.90877000  0.86096000  0.29365000  0.00000000
H        H    0.04781000  0.43269000  0.13904000  0.00000000
H        H    0.86096000  0.56731000  0.95219000  0.00000000
H        H    0.38488000  0.43269000  0.29365000  0.00000000
H        H    0.29365000  0.38488000  0.43269000  0.00000000
H        H    0.86096000  0.29365000  0.90877000  0.00000000
H        H    0.95219000  0.86096000  0.56731000  0.00000000
H        H    0.56731000  0.61512000  0.70635000  0.00000000
H        H    0.90877000  0.04781000  0.61512000  0.00000000
H        H    0.43269000  0.29365000  0.38488000  0.00000000
H        H    0.29365000  0.90877000  0.86096000  0.00000000
H        H    0.09123000  0.70635000  0.13904000  0.00000000
H        H    0.04781000  0.61512000  0.90877000  0.00000000
H        H    0.56731000  0.95219000  0.86096000  0.00000000
H        H    0.38488000  0.95219000  0.09123000  0.00000000
H        H    0.13904000  0.04781000  0.43269000  0.00000000
H        H    0.61512000  0.70635000  0.56731000  0.00000000
H        H    0.09123000  0.38488000  0.95219000  0.00000000
H        H    0.61512000  0.90877000  0.04781000  0.00000000
Zn       Zn   0.14860000  0.29720000  0.64860000  0.00000000
Zn       Zn   0.85140000  0.50000000  0.14860000  0.00000000
Zn       Zn   0.64860000  0.50000000  0.35140000  0.00000000
Zn       Zn   0.85140000  0.35140000  0.70280000  0.00000000
Zn       Zn   0.50000000  0.14860000  0.85140000  0.00000000
Zn       Zn   0.64860000  0.14860000  0.29720000  0.00000000
Zn       Zn   0.70280000  0.85140000  0.35140000  0.00000000
Zn       Zn   0.14860000  0.85140000  0.50000000  0.00000000
Zn       Zn   0.50000000  0.35140000  0.64860000  0.00000000
Zn       Zn   0.35140000  0.64860000  0.50000000  0.00000000
Zn       Zn   0.29720000  0.64860000  0.14860000  0.00000000
Zn       Zn   0.35140000  0.70280000  0.85140000  0.00000000
Zn       Zn   0.64590000  0.35410000  0.50000000  0.00000000
Zn       Zn   0.35410000  0.50000000  0.64590000  0.00000000
Zn       Zn   0.50000000  0.64590000  0.35410000  0.00000000
Zn       Zn   0.85410000  0.70820000  0.35410000  0.00000000
Zn       Zn   0.29180000  0.14590000  0.64590000  0.00000000
Zn       Zn   0.35410000  0.85410000  0.70820000  0.00000000
Zn       Zn   0.70820000  0.35410000  0.85410000  0.00000000
Zn       Zn   0.14590000  0.64590000  0.29180000  0.00000000
Zn       Zn   0.50000000  0.85410000  0.14590000  0.00000000
Zn       Zn   0.14590000  0.50000000  0.85410000  0.00000000
Zn       Zn   0.64590000  0.29180000  0.14590000  0.00000000
Zn       Zn   0.85410000  0.14590000  0.50000000  0.00000000
