data_ZIF-71

_cell_length_a  28.55390000
_cell_length_b  28.55390000
_cell_length_c  28.55390000
_cell_angle_alpha  90.00000000
_cell_angle_beta  90.00000000
_cell_angle_gamma  90.00000000


_symmetry_space_group_name_Hall ' P 1'
_symmetry_space_group_name_H-M  'P 1'
_symmetry_Int_Tables_number     1

loop_
_atom_site_label
_atom_site_type_symbol
_atom_site_fract_x
_atom_site_fract_y
_atom_site_fract_z
_atom_site_charge
Zn       Zn   0.25207000  0.60449000  0.89567000  0.00000000
Zn       Zn   0.74793000  0.89567000  0.39551000  0.00000000
Zn       Zn   0.39551000  0.25207000  0.10433000  0.00000000
Zn       Zn   0.60449000  0.25207000  0.10433000  0.00000000
Zn       Zn   0.10433000  0.25207000  0.60449000  0.00000000
Zn       Zn   0.89567000  0.60449000  0.74793000  0.00000000
Zn       Zn   0.89567000  0.25207000  0.39551000  0.00000000
Zn       Zn   0.10433000  0.74793000  0.60449000  0.00000000
Zn       Zn   0.60449000  0.89567000  0.74793000  0.00000000
Zn       Zn   0.25207000  0.89567000  0.60449000  0.00000000
Zn       Zn   0.25207000  0.10433000  0.39551000  0.00000000
Zn       Zn   0.39551000  0.74793000  0.89567000  0.00000000
Zn       Zn   0.10433000  0.39551000  0.74793000  0.00000000
Zn       Zn   0.39551000  0.74793000  0.10433000  0.00000000
Zn       Zn   0.39551000  0.89567000  0.25207000  0.00000000
Zn       Zn   0.39551000  0.10433000  0.25207000  0.00000000
Zn       Zn   0.39551000  0.25207000  0.89567000  0.00000000
Zn       Zn   0.74793000  0.10433000  0.39551000  0.00000000
Zn       Zn   0.25207000  0.60449000  0.10433000  0.00000000
Zn       Zn   0.10433000  0.74793000  0.39551000  0.00000000
Zn       Zn   0.89567000  0.39551000  0.25207000  0.00000000
Zn       Zn   0.60449000  0.10433000  0.25207000  0.00000000
Zn       Zn   0.10433000  0.60449000  0.74793000  0.00000000
Zn       Zn   0.25207000  0.10433000  0.60449000  0.00000000
Zn       Zn   0.60449000  0.74793000  0.10433000  0.00000000
Zn       Zn   0.74793000  0.60449000  0.10433000  0.00000000
Zn       Zn   0.74793000  0.39551000  0.10433000  0.00000000
Zn       Zn   0.89567000  0.60449000  0.25207000  0.00000000
Zn       Zn   0.74793000  0.39551000  0.89567000  0.00000000
Zn       Zn   0.74793000  0.89567000  0.60449000  0.00000000
Zn       Zn   0.74793000  0.60449000  0.89567000  0.00000000
Zn       Zn   0.25207000  0.39551000  0.89567000  0.00000000
Zn       Zn   0.10433000  0.39551000  0.25207000  0.00000000
Zn       Zn   0.60449000  0.89567000  0.25207000  0.00000000
Zn       Zn   0.89567000  0.25207000  0.60449000  0.00000000
Zn       Zn   0.89567000  0.74793000  0.60449000  0.00000000
Zn       Zn   0.74793000  0.10433000  0.60449000  0.00000000
Zn       Zn   0.25207000  0.39551000  0.10433000  0.00000000
Zn       Zn   0.60449000  0.10433000  0.74793000  0.00000000
Zn       Zn   0.10433000  0.60449000  0.25207000  0.00000000
Zn       Zn   0.60449000  0.25207000  0.89567000  0.00000000
Zn       Zn   0.10433000  0.25207000  0.39551000  0.00000000
Zn       Zn   0.25207000  0.89567000  0.39551000  0.00000000
Zn       Zn   0.39551000  0.89567000  0.74793000  0.00000000
Zn       Zn   0.39551000  0.10433000  0.74793000  0.00000000
Zn       Zn   0.89567000  0.39551000  0.74793000  0.00000000
Zn       Zn   0.89567000  0.74793000  0.39551000  0.00000000
Zn       Zn   0.60449000  0.74793000  0.89567000  0.00000000
C        C    0.39570000  0.74100000  0.00000000  0.00000000
C        C    0.39570000  0.00000000  0.25900000  0.00000000
C        C    0.39570000  0.25900000  0.00000000  0.00000000
C        C    0.74100000  0.00000000  0.39570000  0.00000000
C        C    0.25900000  0.60430000  0.00000000  0.00000000
C        C    0.00000000  0.60430000  0.74100000  0.00000000
C        C    0.25900000  0.00000000  0.60430000  0.00000000
C        C    0.74100000  0.39570000  0.00000000  0.00000000
C        C    0.74100000  0.60430000  0.00000000  0.00000000
C        C    0.00000000  0.39570000  0.25900000  0.00000000
C        C    0.60430000  0.00000000  0.25900000  0.00000000
C        C    0.00000000  0.25900000  0.60430000  0.00000000
C        C    0.00000000  0.74100000  0.60430000  0.00000000
C        C    0.74100000  0.00000000  0.60430000  0.00000000
C        C    0.25900000  0.39570000  0.00000000  0.00000000
C        C    0.60430000  0.00000000  0.74100000  0.00000000
C        C    0.00000000  0.60430000  0.25900000  0.00000000
C        C    0.60430000  0.25900000  0.00000000  0.00000000
C        C    0.00000000  0.25900000  0.39570000  0.00000000
C        C    0.25900000  0.00000000  0.39570000  0.00000000
C        C    0.39570000  0.00000000  0.74100000  0.00000000
C        C    0.00000000  0.39570000  0.74100000  0.00000000
C        C    0.00000000  0.74100000  0.39570000  0.00000000
C        C    0.60430000  0.74100000  0.00000000  0.00000000
H        H    0.42390000  0.72340000  0.00000000  0.00000000
H        H    0.42390000  0.00000000  0.27660000  0.00000000
H        H    0.42390000  0.27660000  0.00000000  0.00000000
H        H    0.72340000  0.00000000  0.42390000  0.00000000
H        H    0.27660000  0.57610000  0.00000000  0.00000000
H        H    0.00000000  0.57610000  0.72340000  0.00000000
H        H    0.27660000  0.00000000  0.57610000  0.00000000
H        H    0.72340000  0.42390000  0.00000000  0.00000000
H        H    0.72340000  0.57610000  0.00000000  0.00000000
H        H    0.00000000  0.42390000  0.27660000  0.00000000
H        H    0.57610000  0.00000000  0.27660000  0.00000000
H        H    0.00000000  0.27660000  0.57610000  0.00000000
H        H    0.00000000  0.72340000  0.57610000  0.00000000
H        H    0.72340000  0.00000000  0.57610000  0.00000000
H        H    0.27660000  0.42390000  0.00000000  0.00000000
H        H    0.57610000  0.00000000  0.72340000  0.00000000
H        H    0.00000000  0.57610000  0.27660000  0.00000000
H        H    0.57610000  0.27660000  0.00000000  0.00000000
H        H    0.00000000  0.27660000  0.42390000  0.00000000
H        H    0.27660000  0.00000000  0.42390000  0.00000000
H        H    0.42390000  0.00000000  0.72340000  0.00000000
H        H    0.00000000  0.42390000  0.72340000  0.00000000
H        H    0.00000000  0.72340000  0.42390000  0.00000000
H        H    0.57610000  0.72340000  0.00000000  0.00000000
N        N    0.24430000  0.62790000  0.96200000  0.00000000
N        N    0.75570000  0.96200000  0.37210000  0.00000000
N        N    0.37210000  0.24430000  0.03800000  0.00000000
N        N    0.62790000  0.24430000  0.03800000  0.00000000
N        N    0.03800000  0.24430000  0.62790000  0.00000000
N        N    0.96200000  0.62790000  0.75570000  0.00000000
N        N    0.96200000  0.24430000  0.37210000  0.00000000
N        N    0.03800000  0.75570000  0.62790000  0.00000000
N        N    0.62790000  0.96200000  0.75570000  0.00000000
N        N    0.24430000  0.96200000  0.62790000  0.00000000
N        N    0.24430000  0.03800000  0.37210000  0.00000000
N        N    0.37210000  0.75570000  0.96200000  0.00000000
N        N    0.03800000  0.37210000  0.75570000  0.00000000
N        N    0.37210000  0.75570000  0.03800000  0.00000000
N        N    0.37210000  0.96200000  0.24430000  0.00000000
N        N    0.37210000  0.03800000  0.24430000  0.00000000
N        N    0.37210000  0.24430000  0.96200000  0.00000000
N        N    0.75570000  0.03800000  0.37210000  0.00000000
N        N    0.24430000  0.62790000  0.03800000  0.00000000
N        N    0.03800000  0.75570000  0.37210000  0.00000000
N        N    0.96200000  0.37210000  0.24430000  0.00000000
N        N    0.62790000  0.03800000  0.24430000  0.00000000
N        N    0.03800000  0.62790000  0.75570000  0.00000000
N        N    0.24430000  0.03800000  0.62790000  0.00000000
N        N    0.62790000  0.75570000  0.03800000  0.00000000
N        N    0.75570000  0.62790000  0.03800000  0.00000000
N        N    0.75570000  0.37210000  0.03800000  0.00000000
N        N    0.96200000  0.62790000  0.24430000  0.00000000
N        N    0.75570000  0.37210000  0.96200000  0.00000000
N        N    0.75570000  0.96200000  0.62790000  0.00000000
N        N    0.75570000  0.62790000  0.96200000  0.00000000
N        N    0.24430000  0.37210000  0.96200000  0.00000000
N        N    0.03800000  0.37210000  0.24430000  0.00000000
N        N    0.62790000  0.96200000  0.24430000  0.00000000
N        N    0.96200000  0.24430000  0.62790000  0.00000000
N        N    0.96200000  0.75570000  0.62790000  0.00000000
N        N    0.75570000  0.03800000  0.62790000  0.00000000
N        N    0.24430000  0.37210000  0.03800000  0.00000000
N        N    0.62790000  0.03800000  0.75570000  0.00000000
N        N    0.03800000  0.62790000  0.24430000  0.00000000
N        N    0.62790000  0.24430000  0.96200000  0.00000000
N        N    0.03800000  0.24430000  0.37210000  0.00000000
N        N    0.24430000  0.96200000  0.37210000  0.00000000
N        N    0.37210000  0.96200000  0.75570000  0.00000000
N        N    0.37210000  0.03800000  0.75570000  0.00000000
N        N    0.96200000  0.37210000  0.75570000  0.00000000
N        N    0.96200000  0.75570000  0.37210000  0.00000000
N        N    0.62790000  0.75570000  0.96200000  0.00000000
C        C    0.22150000  0.66420000  0.97570000  0.00000000
C        C    0.77850000  0.97570000  0.33580000  0.00000000
C        C    0.33580000  0.22150000  0.02430000  0.00000000
C        C    0.66420000  0.22150000  0.02430000  0.00000000
C        C    0.02430000  0.22150000  0.66420000  0.00000000
C        C    0.97570000  0.66420000  0.77850000  0.00000000
C        C    0.97570000  0.22150000  0.33580000  0.00000000
C        C    0.02430000  0.77850000  0.66420000  0.00000000
C        C    0.66420000  0.97570000  0.77850000  0.00000000
C        C    0.22150000  0.97570000  0.66420000  0.00000000
C        C    0.22150000  0.02430000  0.33580000  0.00000000
C        C    0.33580000  0.77850000  0.97570000  0.00000000
C        C    0.02430000  0.33580000  0.77850000  0.00000000
C        C    0.33580000  0.77850000  0.02430000  0.00000000
C        C    0.33580000  0.97570000  0.22150000  0.00000000
C        C    0.33580000  0.02430000  0.22150000  0.00000000
C        C    0.33580000  0.22150000  0.97570000  0.00000000
C        C    0.77850000  0.02430000  0.33580000  0.00000000
C        C    0.22150000  0.66420000  0.02430000  0.00000000
C        C    0.02430000  0.77850000  0.33580000  0.00000000
C        C    0.97570000  0.33580000  0.22150000  0.00000000
C        C    0.66420000  0.02430000  0.22150000  0.00000000
C        C    0.02430000  0.66420000  0.77850000  0.00000000
C        C    0.22150000  0.02430000  0.66420000  0.00000000
C        C    0.66420000  0.77850000  0.02430000  0.00000000
C        C    0.77850000  0.66420000  0.02430000  0.00000000
C        C    0.77850000  0.33580000  0.02430000  0.00000000
C        C    0.97570000  0.66420000  0.22150000  0.00000000
C        C    0.77850000  0.33580000  0.97570000  0.00000000
C        C    0.77850000  0.97570000  0.66420000  0.00000000
C        C    0.77850000  0.66420000  0.97570000  0.00000000
C        C    0.22150000  0.33580000  0.97570000  0.00000000
C        C    0.02430000  0.33580000  0.22150000  0.00000000
C        C    0.66420000  0.97570000  0.22150000  0.00000000
C        C    0.97570000  0.22150000  0.66420000  0.00000000
C        C    0.97570000  0.77850000  0.66420000  0.00000000
C        C    0.77850000  0.02430000  0.66420000  0.00000000
C        C    0.22150000  0.33580000  0.02430000  0.00000000
C        C    0.66420000  0.02430000  0.77850000  0.00000000
C        C    0.02430000  0.66420000  0.22150000  0.00000000
C        C    0.66420000  0.22150000  0.97570000  0.00000000
C        C    0.02430000  0.22150000  0.33580000  0.00000000
C        C    0.22150000  0.97570000  0.33580000  0.00000000
C        C    0.33580000  0.97570000  0.77850000  0.00000000
C        C    0.33580000  0.02430000  0.77850000  0.00000000
C        C    0.97570000  0.33580000  0.77850000  0.00000000
C        C    0.97570000  0.77850000  0.33580000  0.00000000
C        C    0.66420000  0.77850000  0.97570000  0.00000000
Cl       Cl   0.19564000  0.70459000  0.93938000  0.00000000
Cl       Cl   0.80436000  0.93938000  0.29541000  0.00000000
Cl       Cl   0.29541000  0.19564000  0.06062000  0.00000000
Cl       Cl   0.70459000  0.19564000  0.06062000  0.00000000
Cl       Cl   0.06062000  0.19564000  0.70459000  0.00000000
Cl       Cl   0.93938000  0.70459000  0.80436000  0.00000000
Cl       Cl   0.93938000  0.19564000  0.29541000  0.00000000
Cl       Cl   0.06062000  0.80436000  0.70459000  0.00000000
Cl       Cl   0.70459000  0.93938000  0.80436000  0.00000000
Cl       Cl   0.19564000  0.93938000  0.70459000  0.00000000
Cl       Cl   0.19564000  0.06062000  0.29541000  0.00000000
Cl       Cl   0.29541000  0.80436000  0.93938000  0.00000000
Cl       Cl   0.06062000  0.29541000  0.80436000  0.00000000
Cl       Cl   0.29541000  0.80436000  0.06062000  0.00000000
Cl       Cl   0.29541000  0.93938000  0.19564000  0.00000000
Cl       Cl   0.29541000  0.06062000  0.19564000  0.00000000
Cl       Cl   0.29541000  0.19564000  0.93938000  0.00000000
Cl       Cl   0.80436000  0.06062000  0.29541000  0.00000000
Cl       Cl   0.19564000  0.70459000  0.06062000  0.00000000
Cl       Cl   0.06062000  0.80436000  0.29541000  0.00000000
Cl       Cl   0.93938000  0.29541000  0.19564000  0.00000000
Cl       Cl   0.70459000  0.06062000  0.19564000  0.00000000
Cl       Cl   0.06062000  0.70459000  0.80436000  0.00000000
Cl       Cl   0.19564000  0.06062000  0.70459000  0.00000000
Cl       Cl   0.70459000  0.80436000  0.06062000  0.00000000
Cl       Cl   0.80436000  0.70459000  0.06062000  0.00000000
Cl       Cl   0.80436000  0.29541000  0.06062000  0.00000000
Cl       Cl   0.93938000  0.70459000  0.19564000  0.00000000
Cl       Cl   0.80436000  0.29541000  0.93938000  0.00000000
Cl       Cl   0.80436000  0.93938000  0.70459000  0.00000000
Cl       Cl   0.80436000  0.70459000  0.93938000  0.00000000
Cl       Cl   0.19564000  0.29541000  0.93938000  0.00000000
Cl       Cl   0.06062000  0.29541000  0.19564000  0.00000000
Cl       Cl   0.70459000  0.93938000  0.19564000  0.00000000
Cl       Cl   0.93938000  0.19564000  0.70459000  0.00000000
Cl       Cl   0.93938000  0.80436000  0.70459000  0.00000000
Cl       Cl   0.80436000  0.06062000  0.70459000  0.00000000
Cl       Cl   0.19564000  0.29541000  0.06062000  0.00000000
Cl       Cl   0.70459000  0.06062000  0.80436000  0.00000000
Cl       Cl   0.06062000  0.70459000  0.19564000  0.00000000
Cl       Cl   0.70459000  0.19564000  0.93938000  0.00000000
Cl       Cl   0.06062000  0.19564000  0.29541000  0.00000000
Cl       Cl   0.19564000  0.93938000  0.29541000  0.00000000
Cl       Cl   0.29541000  0.93938000  0.80436000  0.00000000
Cl       Cl   0.29541000  0.06062000  0.80436000  0.00000000
Cl       Cl   0.93938000  0.29541000  0.80436000  0.00000000
Cl       Cl   0.93938000  0.80436000  0.29541000  0.00000000
Cl       Cl   0.70459000  0.80436000  0.93938000  0.00000000
C        C    0.50000000  0.25480000  0.10650000  0.00000000
C        C    0.10650000  0.74520000  0.50000000  0.00000000
C        C    0.50000000  0.10650000  0.25480000  0.00000000
C        C    0.10650000  0.50000000  0.74520000  0.00000000
C        C    0.25480000  0.10650000  0.50000000  0.00000000
C        C    0.50000000  0.74520000  0.10650000  0.00000000
C        C    0.74520000  0.50000000  0.10650000  0.00000000
C        C    0.89350000  0.50000000  0.25480000  0.00000000
C        C    0.74520000  0.89350000  0.50000000  0.00000000
C        C    0.74520000  0.50000000  0.89350000  0.00000000
C        C    0.25480000  0.50000000  0.89350000  0.00000000
C        C    0.50000000  0.89350000  0.25480000  0.00000000
C        C    0.89350000  0.25480000  0.50000000  0.00000000
C        C    0.74520000  0.10650000  0.50000000  0.00000000
C        C    0.25480000  0.50000000  0.10650000  0.00000000
C        C    0.10650000  0.50000000  0.25480000  0.00000000
C        C    0.50000000  0.25480000  0.89350000  0.00000000
C        C    0.10650000  0.25480000  0.50000000  0.00000000
C        C    0.25480000  0.89350000  0.50000000  0.00000000
C        C    0.50000000  0.89350000  0.74520000  0.00000000
C        C    0.50000000  0.10650000  0.74520000  0.00000000
C        C    0.89350000  0.50000000  0.74520000  0.00000000
C        C    0.89350000  0.74520000  0.50000000  0.00000000
C        C    0.50000000  0.74520000  0.89350000  0.00000000
H        H    0.50000000  0.22320000  0.11710000  0.00000000
H        H    0.11710000  0.77680000  0.50000000  0.00000000
H        H    0.50000000  0.11710000  0.22320000  0.00000000
H        H    0.11710000  0.50000000  0.77680000  0.00000000
H        H    0.22320000  0.11710000  0.50000000  0.00000000
H        H    0.50000000  0.77680000  0.11710000  0.00000000
H        H    0.77680000  0.50000000  0.11710000  0.00000000
H        H    0.88290000  0.50000000  0.22320000  0.00000000
H        H    0.77680000  0.88290000  0.50000000  0.00000000
H        H    0.77680000  0.50000000  0.88290000  0.00000000
H        H    0.22320000  0.50000000  0.88290000  0.00000000
H        H    0.50000000  0.88290000  0.22320000  0.00000000
H        H    0.88290000  0.22320000  0.50000000  0.00000000
H        H    0.77680000  0.11710000  0.50000000  0.00000000
H        H    0.22320000  0.50000000  0.11710000  0.00000000
H        H    0.11710000  0.50000000  0.22320000  0.00000000
H        H    0.50000000  0.22320000  0.88290000  0.00000000
H        H    0.11710000  0.22320000  0.50000000  0.00000000
H        H    0.22320000  0.88290000  0.50000000  0.00000000
H        H    0.50000000  0.88290000  0.77680000  0.00000000
H        H    0.50000000  0.11710000  0.77680000  0.00000000
H        H    0.88290000  0.50000000  0.77680000  0.00000000
H        H    0.88290000  0.77680000  0.50000000  0.00000000
H        H    0.50000000  0.77680000  0.88290000  0.00000000
N        N    0.27690000  0.53970000  0.90090000  0.00000000
N        N    0.72310000  0.90090000  0.46030000  0.00000000
N        N    0.46030000  0.27690000  0.09910000  0.00000000
N        N    0.53970000  0.27690000  0.09910000  0.00000000
N        N    0.09910000  0.27690000  0.53970000  0.00000000
N        N    0.90090000  0.53970000  0.72310000  0.00000000
N        N    0.90090000  0.27690000  0.46030000  0.00000000
N        N    0.09910000  0.72310000  0.53970000  0.00000000
N        N    0.53970000  0.90090000  0.72310000  0.00000000
N        N    0.27690000  0.90090000  0.53970000  0.00000000
N        N    0.27690000  0.09910000  0.46030000  0.00000000
N        N    0.46030000  0.72310000  0.90090000  0.00000000
N        N    0.09910000  0.46030000  0.72310000  0.00000000
N        N    0.46030000  0.72310000  0.09910000  0.00000000
N        N    0.46030000  0.90090000  0.27690000  0.00000000
N        N    0.46030000  0.09910000  0.27690000  0.00000000
N        N    0.46030000  0.27690000  0.90090000  0.00000000
N        N    0.72310000  0.09910000  0.46030000  0.00000000
N        N    0.27690000  0.53970000  0.09910000  0.00000000
N        N    0.09910000  0.72310000  0.46030000  0.00000000
N        N    0.90090000  0.46030000  0.27690000  0.00000000
N        N    0.53970000  0.09910000  0.27690000  0.00000000
N        N    0.09910000  0.53970000  0.72310000  0.00000000
N        N    0.27690000  0.09910000  0.53970000  0.00000000
N        N    0.53970000  0.72310000  0.09910000  0.00000000
N        N    0.72310000  0.53970000  0.09910000  0.00000000
N        N    0.72310000  0.46030000  0.09910000  0.00000000
N        N    0.90090000  0.53970000  0.27690000  0.00000000
N        N    0.72310000  0.46030000  0.90090000  0.00000000
N        N    0.72310000  0.90090000  0.53970000  0.00000000
N        N    0.72310000  0.53970000  0.90090000  0.00000000
N        N    0.27690000  0.46030000  0.90090000  0.00000000
N        N    0.09910000  0.46030000  0.27690000  0.00000000
N        N    0.53970000  0.90090000  0.27690000  0.00000000
N        N    0.90090000  0.27690000  0.53970000  0.00000000
N        N    0.90090000  0.72310000  0.53970000  0.00000000
N        N    0.72310000  0.09910000  0.53970000  0.00000000
N        N    0.27690000  0.46030000  0.09910000  0.00000000
N        N    0.53970000  0.09910000  0.72310000  0.00000000
N        N    0.09910000  0.53970000  0.27690000  0.00000000
N        N    0.53970000  0.27690000  0.90090000  0.00000000
N        N    0.09910000  0.27690000  0.46030000  0.00000000
N        N    0.27690000  0.90090000  0.46030000  0.00000000
N        N    0.46030000  0.90090000  0.72310000  0.00000000
N        N    0.46030000  0.09910000  0.72310000  0.00000000
N        N    0.90090000  0.46030000  0.72310000  0.00000000
N        N    0.90090000  0.72310000  0.46030000  0.00000000
N        N    0.53970000  0.72310000  0.90090000  0.00000000
C        C    0.32080000  0.52240000  0.91730000  0.00000000
C        C    0.67920000  0.91730000  0.47760000  0.00000000
C        C    0.47760000  0.32080000  0.08270000  0.00000000
C        C    0.52240000  0.32080000  0.08270000  0.00000000
C        C    0.08270000  0.32080000  0.52240000  0.00000000
C        C    0.91730000  0.52240000  0.67920000  0.00000000
C        C    0.91730000  0.32080000  0.47760000  0.00000000
C        C    0.08270000  0.67920000  0.52240000  0.00000000
C        C    0.52240000  0.91730000  0.67920000  0.00000000
C        C    0.32080000  0.91730000  0.52240000  0.00000000
C        C    0.32080000  0.08270000  0.47760000  0.00000000
C        C    0.47760000  0.67920000  0.91730000  0.00000000
C        C    0.08270000  0.47760000  0.67920000  0.00000000
C        C    0.47760000  0.67920000  0.08270000  0.00000000
C        C    0.47760000  0.91730000  0.32080000  0.00000000
C        C    0.47760000  0.08270000  0.32080000  0.00000000
C        C    0.47760000  0.32080000  0.91730000  0.00000000
C        C    0.67920000  0.08270000  0.47760000  0.00000000
C        C    0.32080000  0.52240000  0.08270000  0.00000000
C        C    0.08270000  0.67920000  0.47760000  0.00000000
C        C    0.91730000  0.47760000  0.32080000  0.00000000
C        C    0.52240000  0.08270000  0.32080000  0.00000000
C        C    0.08270000  0.52240000  0.67920000  0.00000000
C        C    0.32080000  0.08270000  0.52240000  0.00000000
C        C    0.52240000  0.67920000  0.08270000  0.00000000
C        C    0.67920000  0.52240000  0.08270000  0.00000000
C        C    0.67920000  0.47760000  0.08270000  0.00000000
C        C    0.91730000  0.52240000  0.32080000  0.00000000
C        C    0.67920000  0.47760000  0.91730000  0.00000000
C        C    0.67920000  0.91730000  0.52240000  0.00000000
C        C    0.67920000  0.52240000  0.91730000  0.00000000
C        C    0.32080000  0.47760000  0.91730000  0.00000000
C        C    0.08270000  0.47760000  0.32080000  0.00000000
C        C    0.52240000  0.91730000  0.32080000  0.00000000
C        C    0.91730000  0.32080000  0.52240000  0.00000000
C        C    0.91730000  0.67920000  0.52240000  0.00000000
C        C    0.67920000  0.08270000  0.52240000  0.00000000
C        C    0.32080000  0.47760000  0.08270000  0.00000000
C        C    0.52240000  0.08270000  0.67920000  0.00000000
C        C    0.08270000  0.52240000  0.32080000  0.00000000
C        C    0.52240000  0.32080000  0.91730000  0.00000000
C        C    0.08270000  0.32080000  0.47760000  0.00000000
C        C    0.32080000  0.91730000  0.47760000  0.00000000
C        C    0.47760000  0.91730000  0.67920000  0.00000000
C        C    0.47760000  0.08270000  0.67920000  0.00000000
C        C    0.91730000  0.47760000  0.67920000  0.00000000
C        C    0.91730000  0.67920000  0.47760000  0.00000000
C        C    0.52240000  0.67920000  0.91730000  0.00000000
Cl       Cl   0.36268000  0.56094000  0.93138000  0.00000000
Cl       Cl   0.63732000  0.93138000  0.43906000  0.00000000
Cl       Cl   0.43906000  0.36268000  0.06862000  0.00000000
Cl       Cl   0.56094000  0.36268000  0.06862000  0.00000000
Cl       Cl   0.06862000  0.36268000  0.56094000  0.00000000
Cl       Cl   0.93138000  0.56094000  0.63732000  0.00000000
Cl       Cl   0.93138000  0.36268000  0.43906000  0.00000000
Cl       Cl   0.06862000  0.63732000  0.56094000  0.00000000
Cl       Cl   0.56094000  0.93138000  0.63732000  0.00000000
Cl       Cl   0.36268000  0.93138000  0.56094000  0.00000000
Cl       Cl   0.36268000  0.06862000  0.43906000  0.00000000
Cl       Cl   0.43906000  0.63732000  0.93138000  0.00000000
Cl       Cl   0.06862000  0.43906000  0.63732000  0.00000000
Cl       Cl   0.43906000  0.63732000  0.06862000  0.00000000
Cl       Cl   0.43906000  0.93138000  0.36268000  0.00000000
Cl       Cl   0.43906000  0.06862000  0.36268000  0.00000000
Cl       Cl   0.43906000  0.36268000  0.93138000  0.00000000
Cl       Cl   0.63732000  0.06862000  0.43906000  0.00000000
Cl       Cl   0.36268000  0.56094000  0.06862000  0.00000000
Cl       Cl   0.06862000  0.63732000  0.43906000  0.00000000
Cl       Cl   0.93138000  0.43906000  0.36268000  0.00000000
Cl       Cl   0.56094000  0.06862000  0.36268000  0.00000000
Cl       Cl   0.06862000  0.56094000  0.63732000  0.00000000
Cl       Cl   0.36268000  0.06862000  0.56094000  0.00000000
Cl       Cl   0.56094000  0.63732000  0.06862000  0.00000000
Cl       Cl   0.63732000  0.56094000  0.06862000  0.00000000
Cl       Cl   0.63732000  0.43906000  0.06862000  0.00000000
Cl       Cl   0.93138000  0.56094000  0.36268000  0.00000000
Cl       Cl   0.63732000  0.43906000  0.93138000  0.00000000
Cl       Cl   0.63732000  0.93138000  0.56094000  0.00000000
Cl       Cl   0.63732000  0.56094000  0.93138000  0.00000000
Cl       Cl   0.36268000  0.43906000  0.93138000  0.00000000
Cl       Cl   0.06862000  0.43906000  0.36268000  0.00000000
Cl       Cl   0.56094000  0.93138000  0.36268000  0.00000000
Cl       Cl   0.93138000  0.36268000  0.56094000  0.00000000
Cl       Cl   0.93138000  0.63732000  0.56094000  0.00000000
Cl       Cl   0.63732000  0.06862000  0.56094000  0.00000000
Cl       Cl   0.36268000  0.43906000  0.06862000  0.00000000
Cl       Cl   0.56094000  0.06862000  0.63732000  0.00000000
Cl       Cl   0.06862000  0.56094000  0.36268000  0.00000000
Cl       Cl   0.56094000  0.36268000  0.93138000  0.00000000
Cl       Cl   0.06862000  0.36268000  0.43906000  0.00000000
Cl       Cl   0.36268000  0.93138000  0.43906000  0.00000000
Cl       Cl   0.43906000  0.93138000  0.63732000  0.00000000
Cl       Cl   0.43906000  0.06862000  0.63732000  0.00000000
Cl       Cl   0.93138000  0.43906000  0.63732000  0.00000000
Cl       Cl   0.93138000  0.63732000  0.43906000  0.00000000
Cl       Cl   0.56094000  0.63732000  0.93138000  0.00000000
C        C    0.31760000  0.68240000  0.88580000  0.00000000
C        C    0.11420000  0.31760000  0.68240000  0.00000000
C        C    0.31760000  0.11420000  0.31760000  0.00000000
C        C    0.31760000  0.68240000  0.11420000  0.00000000
C        C    0.88580000  0.31760000  0.31760000  0.00000000
C        C    0.68240000  0.11420000  0.31760000  0.00000000
C        C    0.11420000  0.68240000  0.68240000  0.00000000
C        C    0.68240000  0.68240000  0.11420000  0.00000000
C        C    0.68240000  0.31760000  0.11420000  0.00000000
C        C    0.68240000  0.88580000  0.68240000  0.00000000
C        C    0.31760000  0.31760000  0.88580000  0.00000000
C        C    0.68240000  0.88580000  0.31760000  0.00000000
C        C    0.88580000  0.68240000  0.68240000  0.00000000
C        C    0.31760000  0.31760000  0.11420000  0.00000000
C        C    0.68240000  0.11420000  0.68240000  0.00000000
C        C    0.11420000  0.68240000  0.31760000  0.00000000
C        C    0.68240000  0.31760000  0.88580000  0.00000000
C        C    0.11420000  0.31760000  0.31760000  0.00000000
C        C    0.31760000  0.88580000  0.31760000  0.00000000
C        C    0.31760000  0.88580000  0.68240000  0.00000000
C        C    0.31760000  0.11420000  0.68240000  0.00000000
C        C    0.88580000  0.31760000  0.68240000  0.00000000
C        C    0.88580000  0.68240000  0.31760000  0.00000000
C        C    0.68240000  0.68240000  0.88580000  0.00000000
H        H    0.30650000  0.69350000  0.91510000  0.00000000
H        H    0.08490000  0.30650000  0.69350000  0.00000000
H        H    0.30650000  0.08490000  0.30650000  0.00000000
H        H    0.30650000  0.69350000  0.08490000  0.00000000
H        H    0.91510000  0.30650000  0.30650000  0.00000000
H        H    0.69350000  0.08490000  0.30650000  0.00000000
H        H    0.08490000  0.69350000  0.69350000  0.00000000
H        H    0.69350000  0.69350000  0.08490000  0.00000000
H        H    0.69350000  0.30650000  0.08490000  0.00000000
H        H    0.69350000  0.91510000  0.69350000  0.00000000
H        H    0.30650000  0.30650000  0.91510000  0.00000000
H        H    0.69350000  0.91510000  0.30650000  0.00000000
H        H    0.91510000  0.69350000  0.69350000  0.00000000
H        H    0.30650000  0.30650000  0.08490000  0.00000000
H        H    0.69350000  0.08490000  0.69350000  0.00000000
H        H    0.08490000  0.69350000  0.30650000  0.00000000
H        H    0.69350000  0.30650000  0.91510000  0.00000000
H        H    0.08490000  0.30650000  0.30650000  0.00000000
H        H    0.30650000  0.91510000  0.30650000  0.00000000
H        H    0.30650000  0.91510000  0.69350000  0.00000000
H        H    0.30650000  0.08490000  0.69350000  0.00000000
H        H    0.91510000  0.30650000  0.69350000  0.00000000
H        H    0.91510000  0.69350000  0.30650000  0.00000000
H        H    0.69350000  0.69350000  0.91510000  0.00000000
N        N    0.29720000  0.64610000  0.86510000  0.00000000
N        N    0.70280000  0.86510000  0.35390000  0.00000000
N        N    0.35390000  0.29720000  0.13490000  0.00000000
N        N    0.64610000  0.29720000  0.13490000  0.00000000
N        N    0.13490000  0.29720000  0.64610000  0.00000000
N        N    0.86510000  0.64610000  0.70280000  0.00000000
N        N    0.86510000  0.29720000  0.35390000  0.00000000
N        N    0.13490000  0.70280000  0.64610000  0.00000000
N        N    0.64610000  0.86510000  0.70280000  0.00000000
N        N    0.29720000  0.86510000  0.64610000  0.00000000
N        N    0.29720000  0.13490000  0.35390000  0.00000000
N        N    0.35390000  0.70280000  0.86510000  0.00000000
N        N    0.13490000  0.35390000  0.70280000  0.00000000
N        N    0.35390000  0.70280000  0.13490000  0.00000000
N        N    0.35390000  0.86510000  0.29720000  0.00000000
N        N    0.35390000  0.13490000  0.29720000  0.00000000
N        N    0.35390000  0.29720000  0.86510000  0.00000000
N        N    0.70280000  0.13490000  0.35390000  0.00000000
N        N    0.29720000  0.64610000  0.13490000  0.00000000
N        N    0.13490000  0.70280000  0.35390000  0.00000000
N        N    0.86510000  0.35390000  0.29720000  0.00000000
N        N    0.64610000  0.13490000  0.29720000  0.00000000
N        N    0.13490000  0.64610000  0.70280000  0.00000000
N        N    0.29720000  0.13490000  0.64610000  0.00000000
N        N    0.64610000  0.70280000  0.13490000  0.00000000
N        N    0.70280000  0.64610000  0.13490000  0.00000000
N        N    0.70280000  0.35390000  0.13490000  0.00000000
N        N    0.86510000  0.64610000  0.29720000  0.00000000
N        N    0.70280000  0.35390000  0.86510000  0.00000000
N        N    0.70280000  0.86510000  0.64610000  0.00000000
N        N    0.70280000  0.64610000  0.86510000  0.00000000
N        N    0.29720000  0.35390000  0.86510000  0.00000000
N        N    0.13490000  0.35390000  0.29720000  0.00000000
N        N    0.64610000  0.86510000  0.29720000  0.00000000
N        N    0.86510000  0.29720000  0.64610000  0.00000000
N        N    0.86510000  0.70280000  0.64610000  0.00000000
N        N    0.70280000  0.13490000  0.64610000  0.00000000
N        N    0.29720000  0.35390000  0.13490000  0.00000000
N        N    0.64610000  0.13490000  0.70280000  0.00000000
N        N    0.13490000  0.64610000  0.29720000  0.00000000
N        N    0.64610000  0.29720000  0.86510000  0.00000000
N        N    0.13490000  0.29720000  0.35390000  0.00000000
N        N    0.29720000  0.86510000  0.35390000  0.00000000
N        N    0.35390000  0.86510000  0.70280000  0.00000000
N        N    0.35390000  0.13490000  0.70280000  0.00000000
N        N    0.86510000  0.35390000  0.70280000  0.00000000
N        N    0.86510000  0.70280000  0.35390000  0.00000000
N        N    0.64610000  0.70280000  0.86510000  0.00000000
C        C    0.32410000  0.64340000  0.82470000  0.00000000
C        C    0.67590000  0.82470000  0.35660000  0.00000000
C        C    0.35660000  0.32410000  0.17530000  0.00000000
C        C    0.64340000  0.32410000  0.17530000  0.00000000
C        C    0.17530000  0.32410000  0.64340000  0.00000000
C        C    0.82470000  0.64340000  0.67590000  0.00000000
C        C    0.82470000  0.32410000  0.35660000  0.00000000
C        C    0.17530000  0.67590000  0.64340000  0.00000000
C        C    0.64340000  0.82470000  0.67590000  0.00000000
C        C    0.32410000  0.82470000  0.64340000  0.00000000
C        C    0.32410000  0.17530000  0.35660000  0.00000000
C        C    0.35660000  0.67590000  0.82470000  0.00000000
C        C    0.17530000  0.35660000  0.67590000  0.00000000
C        C    0.35660000  0.67590000  0.17530000  0.00000000
C        C    0.35660000  0.82470000  0.32410000  0.00000000
C        C    0.35660000  0.17530000  0.32410000  0.00000000
C        C    0.35660000  0.32410000  0.82470000  0.00000000
C        C    0.67590000  0.17530000  0.35660000  0.00000000
C        C    0.32410000  0.64340000  0.17530000  0.00000000
C        C    0.17530000  0.67590000  0.35660000  0.00000000
C        C    0.82470000  0.35660000  0.32410000  0.00000000
C        C    0.64340000  0.17530000  0.32410000  0.00000000
C        C    0.17530000  0.64340000  0.67590000  0.00000000
C        C    0.32410000  0.17530000  0.64340000  0.00000000
C        C    0.64340000  0.67590000  0.17530000  0.00000000
C        C    0.67590000  0.64340000  0.17530000  0.00000000
C        C    0.67590000  0.35660000  0.17530000  0.00000000
C        C    0.82470000  0.64340000  0.32410000  0.00000000
C        C    0.67590000  0.35660000  0.82470000  0.00000000
C        C    0.67590000  0.82470000  0.64340000  0.00000000
C        C    0.67590000  0.64340000  0.82470000  0.00000000
C        C    0.32410000  0.35660000  0.82470000  0.00000000
C        C    0.17530000  0.35660000  0.32410000  0.00000000
C        C    0.64340000  0.82470000  0.32410000  0.00000000
C        C    0.82470000  0.32410000  0.64340000  0.00000000
C        C    0.82470000  0.67590000  0.64340000  0.00000000
C        C    0.67590000  0.17530000  0.64340000  0.00000000
C        C    0.32410000  0.35660000  0.17530000  0.00000000
C        C    0.64340000  0.17530000  0.67590000  0.00000000
C        C    0.17530000  0.64340000  0.32410000  0.00000000
C        C    0.64340000  0.32410000  0.82470000  0.00000000
C        C    0.17530000  0.32410000  0.35660000  0.00000000
C        C    0.32410000  0.82470000  0.35660000  0.00000000
C        C    0.35660000  0.82470000  0.67590000  0.00000000
C        C    0.35660000  0.17530000  0.67590000  0.00000000
C        C    0.82470000  0.35660000  0.67590000  0.00000000
C        C    0.82470000  0.67590000  0.35660000  0.00000000
C        C    0.64340000  0.67590000  0.82470000  0.00000000
Cl       Cl   0.31090000  0.60246000  0.78478000  0.00000000
Cl       Cl   0.68910000  0.78478000  0.39754000  0.00000000
Cl       Cl   0.39754000  0.31090000  0.21522000  0.00000000
Cl       Cl   0.60246000  0.31090000  0.21522000  0.00000000
Cl       Cl   0.21522000  0.31090000  0.60246000  0.00000000
Cl       Cl   0.78478000  0.60246000  0.68910000  0.00000000
Cl       Cl   0.78478000  0.31090000  0.39754000  0.00000000
Cl       Cl   0.21522000  0.68910000  0.60246000  0.00000000
Cl       Cl   0.60246000  0.78478000  0.68910000  0.00000000
Cl       Cl   0.31090000  0.78478000  0.60246000  0.00000000
Cl       Cl   0.31090000  0.21522000  0.39754000  0.00000000
Cl       Cl   0.39754000  0.68910000  0.78478000  0.00000000
Cl       Cl   0.21522000  0.39754000  0.68910000  0.00000000
Cl       Cl   0.39754000  0.68910000  0.21522000  0.00000000
Cl       Cl   0.39754000  0.78478000  0.31090000  0.00000000
Cl       Cl   0.39754000  0.21522000  0.31090000  0.00000000
Cl       Cl   0.39754000  0.31090000  0.78478000  0.00000000
Cl       Cl   0.68910000  0.21522000  0.39754000  0.00000000
Cl       Cl   0.31090000  0.60246000  0.21522000  0.00000000
Cl       Cl   0.21522000  0.68910000  0.39754000  0.00000000
Cl       Cl   0.78478000  0.39754000  0.31090000  0.00000000
Cl       Cl   0.60246000  0.21522000  0.31090000  0.00000000
Cl       Cl   0.21522000  0.60246000  0.68910000  0.00000000
Cl       Cl   0.31090000  0.21522000  0.60246000  0.00000000
Cl       Cl   0.60246000  0.68910000  0.21522000  0.00000000
Cl       Cl   0.68910000  0.60246000  0.21522000  0.00000000
Cl       Cl   0.68910000  0.39754000  0.21522000  0.00000000
Cl       Cl   0.78478000  0.60246000  0.31090000  0.00000000
Cl       Cl   0.68910000  0.39754000  0.78478000  0.00000000
Cl       Cl   0.68910000  0.78478000  0.60246000  0.00000000
Cl       Cl   0.68910000  0.60246000  0.78478000  0.00000000
Cl       Cl   0.31090000  0.39754000  0.78478000  0.00000000
Cl       Cl   0.21522000  0.39754000  0.31090000  0.00000000
Cl       Cl   0.60246000  0.78478000  0.31090000  0.00000000
Cl       Cl   0.78478000  0.31090000  0.60246000  0.00000000
Cl       Cl   0.78478000  0.68910000  0.60246000  0.00000000
Cl       Cl   0.68910000  0.21522000  0.60246000  0.00000000
Cl       Cl   0.31090000  0.39754000  0.21522000  0.00000000
Cl       Cl   0.60246000  0.21522000  0.68910000  0.00000000
Cl       Cl   0.21522000  0.60246000  0.31090000  0.00000000
Cl       Cl   0.60246000  0.31090000  0.78478000  0.00000000
Cl       Cl   0.21522000  0.31090000  0.39754000  0.00000000
Cl       Cl   0.31090000  0.78478000  0.39754000  0.00000000
Cl       Cl   0.39754000  0.78478000  0.68910000  0.00000000
Cl       Cl   0.39754000  0.21522000  0.68910000  0.00000000
Cl       Cl   0.78478000  0.39754000  0.68910000  0.00000000
Cl       Cl   0.78478000  0.68910000  0.39754000  0.00000000
Cl       Cl   0.60246000  0.68910000  0.78478000  0.00000000
C        C    0.17810000  0.82190000  0.60510000  0.00000000
C        C    0.39490000  0.82190000  0.17810000  0.00000000
C        C    0.39490000  0.17810000  0.17810000  0.00000000
C        C    0.82190000  0.17810000  0.39490000  0.00000000
C        C    0.60510000  0.17810000  0.17810000  0.00000000
C        C    0.17810000  0.60510000  0.82190000  0.00000000
C        C    0.17810000  0.17810000  0.60510000  0.00000000
C        C    0.82190000  0.39490000  0.17810000  0.00000000
C        C    0.82190000  0.60510000  0.17810000  0.00000000
C        C    0.82190000  0.60510000  0.82190000  0.00000000
C        C    0.17810000  0.39490000  0.82190000  0.00000000
C        C    0.60510000  0.82190000  0.17810000  0.00000000
C        C    0.82190000  0.82190000  0.60510000  0.00000000
C        C    0.82190000  0.17810000  0.60510000  0.00000000
C        C    0.17810000  0.39490000  0.17810000  0.00000000
C        C    0.17810000  0.60510000  0.17810000  0.00000000
C        C    0.60510000  0.17810000  0.82190000  0.00000000
C        C    0.17810000  0.17810000  0.39490000  0.00000000
C        C    0.17810000  0.82190000  0.39490000  0.00000000
C        C    0.39490000  0.82190000  0.82190000  0.00000000
C        C    0.39490000  0.17810000  0.82190000  0.00000000
C        C    0.82190000  0.39490000  0.82190000  0.00000000
C        C    0.82190000  0.82190000  0.39490000  0.00000000
C        C    0.60510000  0.82190000  0.82190000  0.00000000
H        H    0.20070000  0.79930000  0.61440000  0.00000000
H        H    0.38560000  0.79930000  0.20070000  0.00000000
H        H    0.38560000  0.20070000  0.20070000  0.00000000
H        H    0.79930000  0.20070000  0.38560000  0.00000000
H        H    0.61440000  0.20070000  0.20070000  0.00000000
H        H    0.20070000  0.61440000  0.79930000  0.00000000
H        H    0.20070000  0.20070000  0.61440000  0.00000000
H        H    0.79930000  0.38560000  0.20070000  0.00000000
H        H    0.79930000  0.61440000  0.20070000  0.00000000
H        H    0.79930000  0.61440000  0.79930000  0.00000000
H        H    0.20070000  0.38560000  0.79930000  0.00000000
H        H    0.61440000  0.79930000  0.20070000  0.00000000
H        H    0.79930000  0.79930000  0.61440000  0.00000000
H        H    0.79930000  0.20070000  0.61440000  0.00000000
H        H    0.20070000  0.38560000  0.20070000  0.00000000
H        H    0.20070000  0.61440000  0.20070000  0.00000000
H        H    0.61440000  0.20070000  0.79930000  0.00000000
H        H    0.20070000  0.20070000  0.38560000  0.00000000
H        H    0.20070000  0.79930000  0.38560000  0.00000000
H        H    0.38560000  0.79930000  0.79930000  0.00000000
H        H    0.38560000  0.20070000  0.79930000  0.00000000
H        H    0.79930000  0.38560000  0.79930000  0.00000000
H        H    0.79930000  0.79930000  0.38560000  0.00000000
H        H    0.61440000  0.79930000  0.79930000  0.00000000
N        N    0.19230000  0.59930000  0.86390000  0.00000000
N        N    0.80770000  0.86390000  0.40070000  0.00000000
N        N    0.40070000  0.19230000  0.13610000  0.00000000
N        N    0.59930000  0.19230000  0.13610000  0.00000000
N        N    0.13610000  0.19230000  0.59930000  0.00000000
N        N    0.86390000  0.59930000  0.80770000  0.00000000
N        N    0.86390000  0.19230000  0.40070000  0.00000000
N        N    0.13610000  0.80770000  0.59930000  0.00000000
N        N    0.59930000  0.86390000  0.80770000  0.00000000
N        N    0.19230000  0.86390000  0.59930000  0.00000000
N        N    0.19230000  0.13610000  0.40070000  0.00000000
N        N    0.40070000  0.80770000  0.86390000  0.00000000
N        N    0.13610000  0.40070000  0.80770000  0.00000000
N        N    0.40070000  0.80770000  0.13610000  0.00000000
N        N    0.40070000  0.86390000  0.19230000  0.00000000
N        N    0.40070000  0.13610000  0.19230000  0.00000000
N        N    0.40070000  0.19230000  0.86390000  0.00000000
N        N    0.80770000  0.13610000  0.40070000  0.00000000
N        N    0.19230000  0.59930000  0.13610000  0.00000000
N        N    0.13610000  0.80770000  0.40070000  0.00000000
N        N    0.86390000  0.40070000  0.19230000  0.00000000
N        N    0.59930000  0.13610000  0.19230000  0.00000000
N        N    0.13610000  0.59930000  0.80770000  0.00000000
N        N    0.19230000  0.13610000  0.59930000  0.00000000
N        N    0.59930000  0.80770000  0.13610000  0.00000000
N        N    0.80770000  0.59930000  0.13610000  0.00000000
N        N    0.80770000  0.40070000  0.13610000  0.00000000
N        N    0.86390000  0.59930000  0.19230000  0.00000000
N        N    0.80770000  0.40070000  0.86390000  0.00000000
N        N    0.80770000  0.86390000  0.59930000  0.00000000
N        N    0.80770000  0.59930000  0.86390000  0.00000000
N        N    0.19230000  0.40070000  0.86390000  0.00000000
N        N    0.13610000  0.40070000  0.19230000  0.00000000
N        N    0.59930000  0.86390000  0.19230000  0.00000000
N        N    0.86390000  0.19230000  0.59930000  0.00000000
N        N    0.86390000  0.80770000  0.59930000  0.00000000
N        N    0.80770000  0.13610000  0.59930000  0.00000000
N        N    0.19230000  0.40070000  0.13610000  0.00000000
N        N    0.59930000  0.13610000  0.80770000  0.00000000
N        N    0.13610000  0.59930000  0.19230000  0.00000000
N        N    0.59930000  0.19230000  0.86390000  0.00000000
N        N    0.13610000  0.19230000  0.40070000  0.00000000
N        N    0.19230000  0.86390000  0.40070000  0.00000000
N        N    0.40070000  0.86390000  0.80770000  0.00000000
N        N    0.40070000  0.13610000  0.80770000  0.00000000
N        N    0.86390000  0.40070000  0.80770000  0.00000000
N        N    0.86390000  0.80770000  0.40070000  0.00000000
N        N    0.59930000  0.80770000  0.86390000  0.00000000
C        C    0.15070000  0.58290000  0.88140000  0.00000000
C        C    0.84930000  0.88140000  0.41710000  0.00000000
C        C    0.41710000  0.15070000  0.11860000  0.00000000
C        C    0.58290000  0.15070000  0.11860000  0.00000000
C        C    0.11860000  0.15070000  0.58290000  0.00000000
C        C    0.88140000  0.58290000  0.84930000  0.00000000
C        C    0.88140000  0.15070000  0.41710000  0.00000000
C        C    0.11860000  0.84930000  0.58290000  0.00000000
C        C    0.58290000  0.88140000  0.84930000  0.00000000
C        C    0.15070000  0.88140000  0.58290000  0.00000000
C        C    0.15070000  0.11860000  0.41710000  0.00000000
C        C    0.41710000  0.84930000  0.88140000  0.00000000
C        C    0.11860000  0.41710000  0.84930000  0.00000000
C        C    0.41710000  0.84930000  0.11860000  0.00000000
C        C    0.41710000  0.88140000  0.15070000  0.00000000
C        C    0.41710000  0.11860000  0.15070000  0.00000000
C        C    0.41710000  0.15070000  0.88140000  0.00000000
C        C    0.84930000  0.11860000  0.41710000  0.00000000
C        C    0.15070000  0.58290000  0.11860000  0.00000000
C        C    0.11860000  0.84930000  0.41710000  0.00000000
C        C    0.88140000  0.41710000  0.15070000  0.00000000
C        C    0.58290000  0.11860000  0.15070000  0.00000000
C        C    0.11860000  0.58290000  0.84930000  0.00000000
C        C    0.15070000  0.11860000  0.58290000  0.00000000
C        C    0.58290000  0.84930000  0.11860000  0.00000000
C        C    0.84930000  0.58290000  0.11860000  0.00000000
C        C    0.84930000  0.41710000  0.11860000  0.00000000
C        C    0.88140000  0.58290000  0.15070000  0.00000000
C        C    0.84930000  0.41710000  0.88140000  0.00000000
C        C    0.84930000  0.88140000  0.58290000  0.00000000
C        C    0.84930000  0.58290000  0.88140000  0.00000000
C        C    0.15070000  0.41710000  0.88140000  0.00000000
C        C    0.11860000  0.41710000  0.15070000  0.00000000
C        C    0.58290000  0.88140000  0.15070000  0.00000000
C        C    0.88140000  0.15070000  0.58290000  0.00000000
C        C    0.88140000  0.84930000  0.58290000  0.00000000
C        C    0.84930000  0.11860000  0.58290000  0.00000000
C        C    0.15070000  0.41710000  0.11860000  0.00000000
C        C    0.58290000  0.11860000  0.84930000  0.00000000
C        C    0.11860000  0.58290000  0.15070000  0.00000000
C        C    0.58290000  0.15070000  0.88140000  0.00000000
C        C    0.11860000  0.15070000  0.41710000  0.00000000
C        C    0.15070000  0.88140000  0.41710000  0.00000000
C        C    0.41710000  0.88140000  0.84930000  0.00000000
C        C    0.41710000  0.11860000  0.84930000  0.00000000
C        C    0.88140000  0.41710000  0.84930000  0.00000000
C        C    0.88140000  0.84930000  0.41710000  0.00000000
C        C    0.58290000  0.84930000  0.88140000  0.00000000
Cl       Cl   0.14477000  0.56690000  0.94046000  0.00000000
Cl       Cl   0.85523000  0.94046000  0.43310000  0.00000000
Cl       Cl   0.43310000  0.14477000  0.05954000  0.00000000
Cl       Cl   0.56690000  0.14477000  0.05954000  0.00000000
Cl       Cl   0.05954000  0.14477000  0.56690000  0.00000000
Cl       Cl   0.94046000  0.56690000  0.85523000  0.00000000
Cl       Cl   0.94046000  0.14477000  0.43310000  0.00000000
Cl       Cl   0.05954000  0.85523000  0.56690000  0.00000000
Cl       Cl   0.56690000  0.94046000  0.85523000  0.00000000
Cl       Cl   0.14477000  0.94046000  0.56690000  0.00000000
Cl       Cl   0.14477000  0.05954000  0.43310000  0.00000000
Cl       Cl   0.43310000  0.85523000  0.94046000  0.00000000
Cl       Cl   0.05954000  0.43310000  0.85523000  0.00000000
Cl       Cl   0.43310000  0.85523000  0.05954000  0.00000000
Cl       Cl   0.43310000  0.94046000  0.14477000  0.00000000
Cl       Cl   0.43310000  0.05954000  0.14477000  0.00000000
Cl       Cl   0.43310000  0.14477000  0.94046000  0.00000000
Cl       Cl   0.85523000  0.05954000  0.43310000  0.00000000
Cl       Cl   0.14477000  0.56690000  0.05954000  0.00000000
Cl       Cl   0.05954000  0.85523000  0.43310000  0.00000000
Cl       Cl   0.94046000  0.43310000  0.14477000  0.00000000
Cl       Cl   0.56690000  0.05954000  0.14477000  0.00000000
Cl       Cl   0.05954000  0.56690000  0.85523000  0.00000000
Cl       Cl   0.14477000  0.05954000  0.56690000  0.00000000
Cl       Cl   0.56690000  0.85523000  0.05954000  0.00000000
Cl       Cl   0.85523000  0.56690000  0.05954000  0.00000000
Cl       Cl   0.85523000  0.43310000  0.05954000  0.00000000
Cl       Cl   0.94046000  0.56690000  0.14477000  0.00000000
Cl       Cl   0.85523000  0.43310000  0.94046000  0.00000000
Cl       Cl   0.85523000  0.94046000  0.56690000  0.00000000
Cl       Cl   0.85523000  0.56690000  0.94046000  0.00000000
Cl       Cl   0.14477000  0.43310000  0.94046000  0.00000000
Cl       Cl   0.05954000  0.43310000  0.14477000  0.00000000
Cl       Cl   0.56690000  0.94046000  0.14477000  0.00000000
Cl       Cl   0.94046000  0.14477000  0.56690000  0.00000000
Cl       Cl   0.94046000  0.85523000  0.56690000  0.00000000
Cl       Cl   0.85523000  0.05954000  0.56690000  0.00000000
Cl       Cl   0.14477000  0.43310000  0.05954000  0.00000000
Cl       Cl   0.56690000  0.05954000  0.85523000  0.00000000
Cl       Cl   0.05954000  0.56690000  0.14477000  0.00000000
Cl       Cl   0.56690000  0.14477000  0.94046000  0.00000000
Cl       Cl   0.05954000  0.14477000  0.43310000  0.00000000
Cl       Cl   0.14477000  0.94046000  0.43310000  0.00000000
Cl       Cl   0.43310000  0.94046000  0.85523000  0.00000000
Cl       Cl   0.43310000  0.05954000  0.85523000  0.00000000
Cl       Cl   0.94046000  0.43310000  0.85523000  0.00000000
Cl       Cl   0.94046000  0.85523000  0.43310000  0.00000000
Cl       Cl   0.56690000  0.85523000  0.94046000  0.00000000
