data_ZIF-96

_cell_length_a  28.35640000
_cell_length_b  28.35640000
_cell_length_c  28.35640000
_cell_angle_alpha  90.00000000
_cell_angle_beta  90.00000000
_cell_angle_gamma  90.00000000


_symmetry_space_group_name_Hall ' P 1'
_symmetry_space_group_name_H-M  'P 1'
_symmetry_Int_Tables_number     1

loop_
_atom_site_label
_atom_site_type_symbol
_atom_site_fract_x
_atom_site_fract_y
_atom_site_fract_z
_atom_site_charge
C        C    0.88055000  0.75356000  0.49915000  0.00000000
C        C    0.38055000  0.74644000  0.00085000  0.00000000
C        C    0.99915000  0.61945000  0.74644000  0.00000000
C        C    0.75356000  0.88055000  0.50085000  0.00000000
C        C    0.99915000  0.25356000  0.61945000  0.00000000
C        C    0.49915000  0.75356000  0.11945000  0.00000000
C        C    0.50085000  0.11945000  0.75356000  0.00000000
C        C    0.61945000  0.25356000  0.00085000  0.00000000
C        C    0.50085000  0.24644000  0.11945000  0.00000000
C        C    0.99915000  0.74644000  0.38055000  0.00000000
C        C    0.24644000  0.11945000  0.50085000  0.00000000
C        C    0.74644000  0.00085000  0.38055000  0.00000000
C        C    0.74644000  0.38055000  0.99915000  0.00000000
C        C    0.24644000  0.50085000  0.88055000  0.00000000
C        C    0.00085000  0.38055000  0.74644000  0.00000000
C        C    0.24644000  0.88055000  0.49915000  0.00000000
C        C    0.11945000  0.50085000  0.24644000  0.00000000
C        C    0.61945000  0.99915000  0.25356000  0.00000000
C        C    0.74644000  0.61945000  0.00085000  0.00000000
C        C    0.61945000  0.74644000  0.99915000  0.00000000
C        C    0.38055000  0.99915000  0.74644000  0.00000000
C        C    0.25356000  0.61945000  0.99915000  0.00000000
C        C    0.49915000  0.24644000  0.88055000  0.00000000
C        C    0.88055000  0.50085000  0.75356000  0.00000000
C        C    0.74644000  0.99915000  0.61945000  0.00000000
C        C    0.11945000  0.75356000  0.50085000  0.00000000
C        C    0.61945000  0.00085000  0.74644000  0.00000000
C        C    0.25356000  0.99915000  0.38055000  0.00000000
C        C    0.11945000  0.24644000  0.49915000  0.00000000
C        C    0.11945000  0.49915000  0.75356000  0.00000000
C        C    0.38055000  0.00085000  0.25356000  0.00000000
C        C    0.25356000  0.00085000  0.61945000  0.00000000
C        C    0.75356000  0.49915000  0.88055000  0.00000000
C        C    0.49915000  0.88055000  0.75356000  0.00000000
C        C    0.00085000  0.25356000  0.38055000  0.00000000
C        C    0.25356000  0.38055000  0.00085000  0.00000000
C        C    0.88055000  0.24644000  0.50085000  0.00000000
C        C    0.75356000  0.50085000  0.11945000  0.00000000
C        C    0.50085000  0.75356000  0.88055000  0.00000000
C        C    0.38055000  0.25356000  0.99915000  0.00000000
C        C    0.00085000  0.74644000  0.61945000  0.00000000
C        C    0.50085000  0.88055000  0.24644000  0.00000000
C        C    0.88055000  0.49915000  0.24644000  0.00000000
C        C    0.24644000  0.49915000  0.11945000  0.00000000
C        C    0.99915000  0.38055000  0.25356000  0.00000000
C        C    0.00085000  0.61945000  0.25356000  0.00000000
C        C    0.49915000  0.11945000  0.24644000  0.00000000
C        C    0.75356000  0.11945000  0.49915000  0.00000000
C        C    0.90821000  0.68811000  0.47423000  0.00000000
C        C    0.40821000  0.81189000  0.02577000  0.00000000
C        C    0.97423000  0.59179000  0.81189000  0.00000000
C        C    0.68811000  0.90821000  0.52577000  0.00000000
C        C    0.97423000  0.18811000  0.59179000  0.00000000
C        C    0.47423000  0.68811000  0.09179000  0.00000000
C        C    0.52577000  0.09179000  0.68811000  0.00000000
C        C    0.59179000  0.18811000  0.02577000  0.00000000
C        C    0.52577000  0.31189000  0.09179000  0.00000000
C        C    0.97423000  0.81189000  0.40821000  0.00000000
C        C    0.31189000  0.09179000  0.52577000  0.00000000
C        C    0.81189000  0.02577000  0.40821000  0.00000000
C        C    0.81189000  0.40821000  0.97423000  0.00000000
C        C    0.31189000  0.52577000  0.90821000  0.00000000
C        C    0.02577000  0.40821000  0.81189000  0.00000000
C        C    0.31189000  0.90821000  0.47423000  0.00000000
C        C    0.09179000  0.52577000  0.31189000  0.00000000
C        C    0.59179000  0.97423000  0.18811000  0.00000000
C        C    0.81189000  0.59179000  0.02577000  0.00000000
C        C    0.59179000  0.81189000  0.97423000  0.00000000
C        C    0.40821000  0.97423000  0.81189000  0.00000000
C        C    0.18811000  0.59179000  0.97423000  0.00000000
C        C    0.47423000  0.31189000  0.90821000  0.00000000
C        C    0.90821000  0.52577000  0.68811000  0.00000000
C        C    0.81189000  0.97423000  0.59179000  0.00000000
C        C    0.09179000  0.68811000  0.52577000  0.00000000
C        C    0.59179000  0.02577000  0.81189000  0.00000000
C        C    0.18811000  0.97423000  0.40821000  0.00000000
C        C    0.09179000  0.31189000  0.47423000  0.00000000
C        C    0.09179000  0.47423000  0.68811000  0.00000000
C        C    0.40821000  0.02577000  0.18811000  0.00000000
C        C    0.18811000  0.02577000  0.59179000  0.00000000
C        C    0.68811000  0.47423000  0.90821000  0.00000000
C        C    0.47423000  0.90821000  0.68811000  0.00000000
C        C    0.02577000  0.18811000  0.40821000  0.00000000
C        C    0.18811000  0.40821000  0.02577000  0.00000000
C        C    0.90821000  0.31189000  0.52577000  0.00000000
C        C    0.68811000  0.52577000  0.09179000  0.00000000
C        C    0.52577000  0.68811000  0.90821000  0.00000000
C        C    0.40821000  0.18811000  0.97423000  0.00000000
C        C    0.02577000  0.81189000  0.59179000  0.00000000
C        C    0.52577000  0.90821000  0.31189000  0.00000000
C        C    0.90821000  0.47423000  0.31189000  0.00000000
C        C    0.31189000  0.47423000  0.09179000  0.00000000
C        C    0.97423000  0.40821000  0.18811000  0.00000000
C        C    0.02577000  0.59179000  0.18811000  0.00000000
C        C    0.47423000  0.09179000  0.31189000  0.00000000
C        C    0.68811000  0.09179000  0.47423000  0.00000000
C        C    0.93261000  0.65537000  0.44430000  0.00000000
C        C    0.43261000  0.84463000  0.05570000  0.00000000
C        C    0.94430000  0.56739000  0.84463000  0.00000000
C        C    0.65537000  0.93261000  0.55570000  0.00000000
C        C    0.94430000  0.15537000  0.56739000  0.00000000
C        C    0.44430000  0.65537000  0.06739000  0.00000000
C        C    0.55570000  0.06739000  0.65537000  0.00000000
C        C    0.56739000  0.15537000  0.05570000  0.00000000
C        C    0.55570000  0.34463000  0.06739000  0.00000000
C        C    0.94430000  0.84463000  0.43261000  0.00000000
C        C    0.34463000  0.06739000  0.55570000  0.00000000
C        C    0.84463000  0.05570000  0.43261000  0.00000000
C        C    0.84463000  0.43261000  0.94430000  0.00000000
C        C    0.34463000  0.55570000  0.93261000  0.00000000
C        C    0.05570000  0.43261000  0.84463000  0.00000000
C        C    0.34463000  0.93261000  0.44430000  0.00000000
C        C    0.06739000  0.55570000  0.34463000  0.00000000
C        C    0.56739000  0.94430000  0.15537000  0.00000000
C        C    0.84463000  0.56739000  0.05570000  0.00000000
C        C    0.56739000  0.84463000  0.94430000  0.00000000
C        C    0.43261000  0.94430000  0.84463000  0.00000000
C        C    0.15537000  0.56739000  0.94430000  0.00000000
C        C    0.44430000  0.34463000  0.93261000  0.00000000
C        C    0.93261000  0.55570000  0.65537000  0.00000000
C        C    0.84463000  0.94430000  0.56739000  0.00000000
C        C    0.06739000  0.65537000  0.55570000  0.00000000
C        C    0.56739000  0.05570000  0.84463000  0.00000000
C        C    0.15537000  0.94430000  0.43261000  0.00000000
C        C    0.06739000  0.34463000  0.44430000  0.00000000
C        C    0.06739000  0.44430000  0.65537000  0.00000000
C        C    0.43261000  0.05570000  0.15537000  0.00000000
C        C    0.15537000  0.05570000  0.56739000  0.00000000
C        C    0.65537000  0.44430000  0.93261000  0.00000000
C        C    0.44430000  0.93261000  0.65537000  0.00000000
C        C    0.05570000  0.15537000  0.43261000  0.00000000
C        C    0.15537000  0.43261000  0.05570000  0.00000000
C        C    0.93261000  0.34463000  0.55570000  0.00000000
C        C    0.65537000  0.55570000  0.06739000  0.00000000
C        C    0.55570000  0.65537000  0.93261000  0.00000000
C        C    0.43261000  0.15537000  0.94430000  0.00000000
C        C    0.05570000  0.84463000  0.56739000  0.00000000
C        C    0.55570000  0.93261000  0.34463000  0.00000000
C        C    0.93261000  0.44430000  0.34463000  0.00000000
C        C    0.34463000  0.44430000  0.06739000  0.00000000
C        C    0.94430000  0.43261000  0.15537000  0.00000000
C        C    0.05570000  0.56739000  0.15537000  0.00000000
C        C    0.44430000  0.06739000  0.34463000  0.00000000
C        C    0.65537000  0.06739000  0.44430000  0.00000000
C        C    0.90946000  0.68833000  0.52246000  0.00000000
C        C    0.40946000  0.81167000  0.97754000  0.00000000
C        C    0.02246000  0.59054000  0.81167000  0.00000000
C        C    0.68833000  0.90946000  0.47754000  0.00000000
C        C    0.02246000  0.18833000  0.59054000  0.00000000
C        C    0.52246000  0.68833000  0.09054000  0.00000000
C        C    0.47754000  0.09054000  0.68833000  0.00000000
C        C    0.59054000  0.18833000  0.97754000  0.00000000
C        C    0.47754000  0.31167000  0.09054000  0.00000000
C        C    0.02246000  0.81167000  0.40946000  0.00000000
C        C    0.31167000  0.09054000  0.47754000  0.00000000
C        C    0.81167000  0.97754000  0.40946000  0.00000000
C        C    0.81167000  0.40946000  0.02246000  0.00000000
C        C    0.31167000  0.47754000  0.90946000  0.00000000
C        C    0.97754000  0.40946000  0.81167000  0.00000000
C        C    0.31167000  0.90946000  0.52246000  0.00000000
C        C    0.09054000  0.47754000  0.31167000  0.00000000
C        C    0.59054000  0.02246000  0.18833000  0.00000000
C        C    0.81167000  0.59054000  0.97754000  0.00000000
C        C    0.59054000  0.81167000  0.02246000  0.00000000
C        C    0.40946000  0.02246000  0.81167000  0.00000000
C        C    0.18833000  0.59054000  0.02246000  0.00000000
C        C    0.52246000  0.31167000  0.90946000  0.00000000
C        C    0.90946000  0.47754000  0.68833000  0.00000000
C        C    0.81167000  0.02246000  0.59054000  0.00000000
C        C    0.09054000  0.68833000  0.47754000  0.00000000
C        C    0.59054000  0.97754000  0.81167000  0.00000000
C        C    0.18833000  0.02246000  0.40946000  0.00000000
C        C    0.09054000  0.31167000  0.52246000  0.00000000
C        C    0.09054000  0.52246000  0.68833000  0.00000000
C        C    0.40946000  0.97754000  0.18833000  0.00000000
C        C    0.18833000  0.97754000  0.59054000  0.00000000
C        C    0.68833000  0.52246000  0.90946000  0.00000000
C        C    0.52246000  0.90946000  0.68833000  0.00000000
C        C    0.97754000  0.18833000  0.40946000  0.00000000
C        C    0.18833000  0.40946000  0.97754000  0.00000000
C        C    0.90946000  0.31167000  0.47754000  0.00000000
C        C    0.68833000  0.47754000  0.09054000  0.00000000
C        C    0.47754000  0.68833000  0.90946000  0.00000000
C        C    0.40946000  0.18833000  0.02246000  0.00000000
C        C    0.97754000  0.81167000  0.59054000  0.00000000
C        C    0.47754000  0.90946000  0.31167000  0.00000000
C        C    0.90946000  0.52246000  0.31167000  0.00000000
C        C    0.31167000  0.52246000  0.09054000  0.00000000
C        C    0.02246000  0.40946000  0.18833000  0.00000000
C        C    0.97754000  0.59054000  0.18833000  0.00000000
C        C    0.52246000  0.09054000  0.31167000  0.00000000
C        C    0.68833000  0.09054000  0.52246000  0.00000000
C        C    0.82085000  0.82153000  0.40710000  0.00000000
C        C    0.32085000  0.67847000  0.09290000  0.00000000
C        C    0.90710000  0.67915000  0.67847000  0.00000000
C        C    0.82153000  0.82085000  0.59290000  0.00000000
C        C    0.90710000  0.32153000  0.67915000  0.00000000
C        C    0.40710000  0.82153000  0.17915000  0.00000000
C        C    0.59290000  0.17915000  0.82153000  0.00000000
C        C    0.67915000  0.32153000  0.09290000  0.00000000
C        C    0.59290000  0.17847000  0.17915000  0.00000000
C        C    0.90710000  0.67847000  0.32085000  0.00000000
C        C    0.17847000  0.17915000  0.59290000  0.00000000
C        C    0.67847000  0.09290000  0.32085000  0.00000000
C        C    0.67847000  0.32085000  0.90710000  0.00000000
C        C    0.17847000  0.59290000  0.82085000  0.00000000
C        C    0.09290000  0.32085000  0.67847000  0.00000000
C        C    0.17847000  0.82085000  0.40710000  0.00000000
C        C    0.17915000  0.59290000  0.17847000  0.00000000
C        C    0.67915000  0.90710000  0.32153000  0.00000000
C        C    0.67847000  0.67915000  0.09290000  0.00000000
C        C    0.67915000  0.67847000  0.90710000  0.00000000
C        C    0.32085000  0.90710000  0.67847000  0.00000000
C        C    0.32153000  0.67915000  0.90710000  0.00000000
C        C    0.40710000  0.17847000  0.82085000  0.00000000
C        C    0.82085000  0.59290000  0.82153000  0.00000000
C        C    0.67847000  0.90710000  0.67915000  0.00000000
C        C    0.17915000  0.82153000  0.59290000  0.00000000
C        C    0.67915000  0.09290000  0.67847000  0.00000000
C        C    0.32153000  0.90710000  0.32085000  0.00000000
C        C    0.17915000  0.17847000  0.40710000  0.00000000
C        C    0.17915000  0.40710000  0.82153000  0.00000000
C        C    0.32085000  0.09290000  0.32153000  0.00000000
C        C    0.32153000  0.09290000  0.67915000  0.00000000
C        C    0.82153000  0.40710000  0.82085000  0.00000000
C        C    0.40710000  0.82085000  0.82153000  0.00000000
C        C    0.09290000  0.32153000  0.32085000  0.00000000
C        C    0.32153000  0.32085000  0.09290000  0.00000000
C        C    0.82085000  0.17847000  0.59290000  0.00000000
C        C    0.82153000  0.59290000  0.17915000  0.00000000
C        C    0.59290000  0.82153000  0.82085000  0.00000000
C        C    0.32085000  0.32153000  0.90710000  0.00000000
C        C    0.09290000  0.67847000  0.67915000  0.00000000
C        C    0.59290000  0.82085000  0.17847000  0.00000000
C        C    0.82085000  0.40710000  0.17847000  0.00000000
C        C    0.17847000  0.40710000  0.17915000  0.00000000
C        C    0.90710000  0.32085000  0.32153000  0.00000000
C        C    0.09290000  0.67915000  0.32153000  0.00000000
C        C    0.40710000  0.17915000  0.17847000  0.00000000
C        C    0.82153000  0.17915000  0.40710000  0.00000000
C        C    0.85537000  0.82312000  0.34039000  0.00000000
C        C    0.35537000  0.67688000  0.15961000  0.00000000
C        C    0.84039000  0.64463000  0.67688000  0.00000000
C        C    0.82312000  0.85537000  0.65961000  0.00000000
C        C    0.84039000  0.32312000  0.64463000  0.00000000
C        C    0.34039000  0.82312000  0.14463000  0.00000000
C        C    0.65961000  0.14463000  0.82312000  0.00000000
C        C    0.64463000  0.32312000  0.15961000  0.00000000
C        C    0.65961000  0.17688000  0.14463000  0.00000000
C        C    0.84039000  0.67688000  0.35537000  0.00000000
C        C    0.17688000  0.14463000  0.65961000  0.00000000
C        C    0.67688000  0.15961000  0.35537000  0.00000000
C        C    0.67688000  0.35537000  0.84039000  0.00000000
C        C    0.17688000  0.65961000  0.85537000  0.00000000
C        C    0.15961000  0.35537000  0.67688000  0.00000000
C        C    0.17688000  0.85537000  0.34039000  0.00000000
C        C    0.14463000  0.65961000  0.17688000  0.00000000
C        C    0.64463000  0.84039000  0.32312000  0.00000000
C        C    0.67688000  0.64463000  0.15961000  0.00000000
C        C    0.64463000  0.67688000  0.84039000  0.00000000
C        C    0.35537000  0.84039000  0.67688000  0.00000000
C        C    0.32312000  0.64463000  0.84039000  0.00000000
C        C    0.34039000  0.17688000  0.85537000  0.00000000
C        C    0.85537000  0.65961000  0.82312000  0.00000000
C        C    0.67688000  0.84039000  0.64463000  0.00000000
C        C    0.14463000  0.82312000  0.65961000  0.00000000
C        C    0.64463000  0.15961000  0.67688000  0.00000000
C        C    0.32312000  0.84039000  0.35537000  0.00000000
C        C    0.14463000  0.17688000  0.34039000  0.00000000
C        C    0.14463000  0.34039000  0.82312000  0.00000000
C        C    0.35537000  0.15961000  0.32312000  0.00000000
C        C    0.32312000  0.15961000  0.64463000  0.00000000
C        C    0.82312000  0.34039000  0.85537000  0.00000000
C        C    0.34039000  0.85537000  0.82312000  0.00000000
C        C    0.15961000  0.32312000  0.35537000  0.00000000
C        C    0.32312000  0.35537000  0.15961000  0.00000000
C        C    0.85537000  0.17688000  0.65961000  0.00000000
C        C    0.82312000  0.65961000  0.14463000  0.00000000
C        C    0.65961000  0.82312000  0.85537000  0.00000000
C        C    0.35537000  0.32312000  0.84039000  0.00000000
C        C    0.15961000  0.67688000  0.64463000  0.00000000
C        C    0.65961000  0.85537000  0.17688000  0.00000000
C        C    0.85537000  0.34039000  0.17688000  0.00000000
C        C    0.17688000  0.34039000  0.14463000  0.00000000
C        C    0.84039000  0.35537000  0.32312000  0.00000000
C        C    0.15961000  0.64463000  0.32312000  0.00000000
C        C    0.34039000  0.14463000  0.17688000  0.00000000
C        C    0.82312000  0.14463000  0.34039000  0.00000000
C        C    0.82156000  0.85765000  0.34097000  0.00000000
C        C    0.32156000  0.64235000  0.15903000  0.00000000
C        C    0.84097000  0.67844000  0.64235000  0.00000000
C        C    0.85765000  0.82156000  0.65903000  0.00000000
C        C    0.84097000  0.35765000  0.67844000  0.00000000
C        C    0.34097000  0.85765000  0.17844000  0.00000000
C        C    0.65903000  0.17844000  0.85765000  0.00000000
C        C    0.67844000  0.35765000  0.15903000  0.00000000
C        C    0.65903000  0.14235000  0.17844000  0.00000000
C        C    0.84097000  0.64235000  0.32156000  0.00000000
C        C    0.14235000  0.17844000  0.65903000  0.00000000
C        C    0.64235000  0.15903000  0.32156000  0.00000000
C        C    0.64235000  0.32156000  0.84097000  0.00000000
C        C    0.14235000  0.65903000  0.82156000  0.00000000
C        C    0.15903000  0.32156000  0.64235000  0.00000000
C        C    0.14235000  0.82156000  0.34097000  0.00000000
C        C    0.17844000  0.65903000  0.14235000  0.00000000
C        C    0.67844000  0.84097000  0.35765000  0.00000000
C        C    0.64235000  0.67844000  0.15903000  0.00000000
C        C    0.67844000  0.64235000  0.84097000  0.00000000
C        C    0.32156000  0.84097000  0.64235000  0.00000000
C        C    0.35765000  0.67844000  0.84097000  0.00000000
C        C    0.34097000  0.14235000  0.82156000  0.00000000
C        C    0.82156000  0.65903000  0.85765000  0.00000000
C        C    0.64235000  0.84097000  0.67844000  0.00000000
C        C    0.17844000  0.85765000  0.65903000  0.00000000
C        C    0.67844000  0.15903000  0.64235000  0.00000000
C        C    0.35765000  0.84097000  0.32156000  0.00000000
C        C    0.17844000  0.14235000  0.34097000  0.00000000
C        C    0.17844000  0.34097000  0.85765000  0.00000000
C        C    0.32156000  0.15903000  0.35765000  0.00000000
C        C    0.35765000  0.15903000  0.67844000  0.00000000
C        C    0.85765000  0.34097000  0.82156000  0.00000000
C        C    0.34097000  0.82156000  0.85765000  0.00000000
C        C    0.15903000  0.35765000  0.32156000  0.00000000
C        C    0.35765000  0.32156000  0.15903000  0.00000000
C        C    0.82156000  0.14235000  0.65903000  0.00000000
C        C    0.85765000  0.65903000  0.17844000  0.00000000
C        C    0.65903000  0.85765000  0.82156000  0.00000000
C        C    0.32156000  0.35765000  0.84097000  0.00000000
C        C    0.15903000  0.64235000  0.67844000  0.00000000
C        C    0.65903000  0.82156000  0.14235000  0.00000000
C        C    0.82156000  0.34097000  0.14235000  0.00000000
C        C    0.14235000  0.34097000  0.17844000  0.00000000
C        C    0.84097000  0.32156000  0.35765000  0.00000000
C        C    0.15903000  0.67844000  0.35765000  0.00000000
C        C    0.34097000  0.17844000  0.14235000  0.00000000
C        C    0.85765000  0.17844000  0.34097000  0.00000000
C        C    0.80968000  0.88949000  0.30335000  0.00000000
C        C    0.30968000  0.61051000  0.19665000  0.00000000
C        C    0.80335000  0.69032000  0.61051000  0.00000000
C        C    0.88949000  0.80968000  0.69665000  0.00000000
C        C    0.80335000  0.38949000  0.69032000  0.00000000
C        C    0.30335000  0.88949000  0.19032000  0.00000000
C        C    0.69665000  0.19032000  0.88949000  0.00000000
C        C    0.69032000  0.38949000  0.19665000  0.00000000
C        C    0.69665000  0.11051000  0.19032000  0.00000000
C        C    0.80335000  0.61051000  0.30968000  0.00000000
C        C    0.11051000  0.19032000  0.69665000  0.00000000
C        C    0.61051000  0.19665000  0.30968000  0.00000000
C        C    0.61051000  0.30968000  0.80335000  0.00000000
C        C    0.11051000  0.69665000  0.80968000  0.00000000
C        C    0.19665000  0.30968000  0.61051000  0.00000000
C        C    0.11051000  0.80968000  0.30335000  0.00000000
C        C    0.19032000  0.69665000  0.11051000  0.00000000
C        C    0.69032000  0.80335000  0.38949000  0.00000000
C        C    0.61051000  0.69032000  0.19665000  0.00000000
C        C    0.69032000  0.61051000  0.80335000  0.00000000
C        C    0.30968000  0.80335000  0.61051000  0.00000000
C        C    0.38949000  0.69032000  0.80335000  0.00000000
C        C    0.30335000  0.11051000  0.80968000  0.00000000
C        C    0.80968000  0.69665000  0.88949000  0.00000000
C        C    0.61051000  0.80335000  0.69032000  0.00000000
C        C    0.19032000  0.88949000  0.69665000  0.00000000
C        C    0.69032000  0.19665000  0.61051000  0.00000000
C        C    0.38949000  0.80335000  0.30968000  0.00000000
C        C    0.19032000  0.11051000  0.30335000  0.00000000
C        C    0.19032000  0.30335000  0.88949000  0.00000000
C        C    0.30968000  0.19665000  0.38949000  0.00000000
C        C    0.38949000  0.19665000  0.69032000  0.00000000
C        C    0.88949000  0.30335000  0.80968000  0.00000000
C        C    0.30335000  0.80968000  0.88949000  0.00000000
C        C    0.19665000  0.38949000  0.30968000  0.00000000
C        C    0.38949000  0.30968000  0.19665000  0.00000000
C        C    0.80968000  0.11051000  0.69665000  0.00000000
C        C    0.88949000  0.69665000  0.19032000  0.00000000
C        C    0.69665000  0.88949000  0.80968000  0.00000000
C        C    0.30968000  0.38949000  0.80335000  0.00000000
C        C    0.19665000  0.61051000  0.69032000  0.00000000
C        C    0.69665000  0.80968000  0.11051000  0.00000000
C        C    0.80968000  0.30335000  0.11051000  0.00000000
C        C    0.11051000  0.30335000  0.19032000  0.00000000
C        C    0.80335000  0.30968000  0.38949000  0.00000000
C        C    0.19665000  0.69032000  0.38949000  0.00000000
C        C    0.30335000  0.19032000  0.11051000  0.00000000
C        C    0.88949000  0.19032000  0.30335000  0.00000000
N        N    0.89002000  0.72915000  0.45924000  0.00000000
N        N    0.39002000  0.77085000  0.04076000  0.00000000
N        N    0.95924000  0.60998000  0.77085000  0.00000000
N        N    0.72915000  0.89002000  0.54076000  0.00000000
N        N    0.95924000  0.22915000  0.60998000  0.00000000
N        N    0.45924000  0.72915000  0.10998000  0.00000000
N        N    0.54076000  0.10998000  0.72915000  0.00000000
N        N    0.60998000  0.22915000  0.04076000  0.00000000
N        N    0.54076000  0.27085000  0.10998000  0.00000000
N        N    0.95924000  0.77085000  0.39002000  0.00000000
N        N    0.27085000  0.10998000  0.54076000  0.00000000
N        N    0.77085000  0.04076000  0.39002000  0.00000000
N        N    0.77085000  0.39002000  0.95924000  0.00000000
N        N    0.27085000  0.54076000  0.89002000  0.00000000
N        N    0.04076000  0.39002000  0.77085000  0.00000000
N        N    0.27085000  0.89002000  0.45924000  0.00000000
N        N    0.10998000  0.54076000  0.27085000  0.00000000
N        N    0.60998000  0.95924000  0.22915000  0.00000000
N        N    0.77085000  0.60998000  0.04076000  0.00000000
N        N    0.60998000  0.77085000  0.95924000  0.00000000
N        N    0.39002000  0.95924000  0.77085000  0.00000000
N        N    0.22915000  0.60998000  0.95924000  0.00000000
N        N    0.45924000  0.27085000  0.89002000  0.00000000
N        N    0.89002000  0.54076000  0.72915000  0.00000000
N        N    0.77085000  0.95924000  0.60998000  0.00000000
N        N    0.10998000  0.72915000  0.54076000  0.00000000
N        N    0.60998000  0.04076000  0.77085000  0.00000000
N        N    0.22915000  0.95924000  0.39002000  0.00000000
N        N    0.10998000  0.27085000  0.45924000  0.00000000
N        N    0.10998000  0.45924000  0.72915000  0.00000000
N        N    0.39002000  0.04076000  0.22915000  0.00000000
N        N    0.22915000  0.04076000  0.60998000  0.00000000
N        N    0.72915000  0.45924000  0.89002000  0.00000000
N        N    0.45924000  0.89002000  0.72915000  0.00000000
N        N    0.04076000  0.22915000  0.39002000  0.00000000
N        N    0.22915000  0.39002000  0.04076000  0.00000000
N        N    0.89002000  0.27085000  0.54076000  0.00000000
N        N    0.72915000  0.54076000  0.10998000  0.00000000
N        N    0.54076000  0.72915000  0.89002000  0.00000000
N        N    0.39002000  0.22915000  0.95924000  0.00000000
N        N    0.04076000  0.77085000  0.60998000  0.00000000
N        N    0.54076000  0.89002000  0.27085000  0.00000000
N        N    0.89002000  0.45924000  0.27085000  0.00000000
N        N    0.27085000  0.45924000  0.10998000  0.00000000
N        N    0.95924000  0.39002000  0.22915000  0.00000000
N        N    0.04076000  0.60998000  0.22915000  0.00000000
N        N    0.45924000  0.10998000  0.27085000  0.00000000
N        N    0.72915000  0.10998000  0.45924000  0.00000000
N        N    0.93471000  0.65544000  0.55089000  0.00000000
N        N    0.43471000  0.84456000  0.94911000  0.00000000
N        N    0.05089000  0.56529000  0.84456000  0.00000000
N        N    0.65544000  0.93471000  0.44911000  0.00000000
N        N    0.05089000  0.15544000  0.56529000  0.00000000
N        N    0.55089000  0.65544000  0.06529000  0.00000000
N        N    0.44911000  0.06529000  0.65544000  0.00000000
N        N    0.56529000  0.15544000  0.94911000  0.00000000
N        N    0.44911000  0.34456000  0.06529000  0.00000000
N        N    0.05089000  0.84456000  0.43471000  0.00000000
N        N    0.34456000  0.06529000  0.44911000  0.00000000
N        N    0.84456000  0.94911000  0.43471000  0.00000000
N        N    0.84456000  0.43471000  0.05089000  0.00000000
N        N    0.34456000  0.44911000  0.93471000  0.00000000
N        N    0.94911000  0.43471000  0.84456000  0.00000000
N        N    0.34456000  0.93471000  0.55089000  0.00000000
N        N    0.06529000  0.44911000  0.34456000  0.00000000
N        N    0.56529000  0.05089000  0.15544000  0.00000000
N        N    0.84456000  0.56529000  0.94911000  0.00000000
N        N    0.56529000  0.84456000  0.05089000  0.00000000
N        N    0.43471000  0.05089000  0.84456000  0.00000000
N        N    0.15544000  0.56529000  0.05089000  0.00000000
N        N    0.55089000  0.34456000  0.93471000  0.00000000
N        N    0.93471000  0.44911000  0.65544000  0.00000000
N        N    0.84456000  0.05089000  0.56529000  0.00000000
N        N    0.06529000  0.65544000  0.44911000  0.00000000
N        N    0.56529000  0.94911000  0.84456000  0.00000000
N        N    0.15544000  0.05089000  0.43471000  0.00000000
N        N    0.06529000  0.34456000  0.55089000  0.00000000
N        N    0.06529000  0.55089000  0.65544000  0.00000000
N        N    0.43471000  0.94911000  0.15544000  0.00000000
N        N    0.15544000  0.94911000  0.56529000  0.00000000
N        N    0.65544000  0.55089000  0.93471000  0.00000000
N        N    0.55089000  0.93471000  0.65544000  0.00000000
N        N    0.94911000  0.15544000  0.43471000  0.00000000
N        N    0.15544000  0.43471000  0.94911000  0.00000000
N        N    0.93471000  0.34456000  0.44911000  0.00000000
N        N    0.65544000  0.44911000  0.06529000  0.00000000
N        N    0.44911000  0.65544000  0.93471000  0.00000000
N        N    0.43471000  0.15544000  0.05089000  0.00000000
N        N    0.94911000  0.84456000  0.56529000  0.00000000
N        N    0.44911000  0.93471000  0.34456000  0.00000000
N        N    0.93471000  0.55089000  0.34456000  0.00000000
N        N    0.34456000  0.55089000  0.06529000  0.00000000
N        N    0.05089000  0.43471000  0.15544000  0.00000000
N        N    0.94911000  0.56529000  0.15544000  0.00000000
N        N    0.55089000  0.06529000  0.34456000  0.00000000
N        N    0.65544000  0.06529000  0.55089000  0.00000000
N        N    0.89168000  0.72917000  0.53864000  0.00000000
N        N    0.39168000  0.77083000  0.96136000  0.00000000
N        N    0.03864000  0.60832000  0.77083000  0.00000000
N        N    0.72917000  0.89168000  0.46136000  0.00000000
N        N    0.03864000  0.22917000  0.60832000  0.00000000
N        N    0.53864000  0.72917000  0.10832000  0.00000000
N        N    0.46136000  0.10832000  0.72917000  0.00000000
N        N    0.60832000  0.22917000  0.96136000  0.00000000
N        N    0.46136000  0.27083000  0.10832000  0.00000000
N        N    0.03864000  0.77083000  0.39168000  0.00000000
N        N    0.27083000  0.10832000  0.46136000  0.00000000
N        N    0.77083000  0.96136000  0.39168000  0.00000000
N        N    0.77083000  0.39168000  0.03864000  0.00000000
N        N    0.27083000  0.46136000  0.89168000  0.00000000
N        N    0.96136000  0.39168000  0.77083000  0.00000000
N        N    0.27083000  0.89168000  0.53864000  0.00000000
N        N    0.10832000  0.46136000  0.27083000  0.00000000
N        N    0.60832000  0.03864000  0.22917000  0.00000000
N        N    0.77083000  0.60832000  0.96136000  0.00000000
N        N    0.60832000  0.77083000  0.03864000  0.00000000
N        N    0.39168000  0.03864000  0.77083000  0.00000000
N        N    0.22917000  0.60832000  0.03864000  0.00000000
N        N    0.53864000  0.27083000  0.89168000  0.00000000
N        N    0.89168000  0.46136000  0.72917000  0.00000000
N        N    0.77083000  0.03864000  0.60832000  0.00000000
N        N    0.10832000  0.72917000  0.46136000  0.00000000
N        N    0.60832000  0.96136000  0.77083000  0.00000000
N        N    0.22917000  0.03864000  0.39168000  0.00000000
N        N    0.10832000  0.27083000  0.53864000  0.00000000
N        N    0.10832000  0.53864000  0.72917000  0.00000000
N        N    0.39168000  0.96136000  0.22917000  0.00000000
N        N    0.22917000  0.96136000  0.60832000  0.00000000
N        N    0.72917000  0.53864000  0.89168000  0.00000000
N        N    0.53864000  0.89168000  0.72917000  0.00000000
N        N    0.96136000  0.22917000  0.39168000  0.00000000
N        N    0.22917000  0.39168000  0.96136000  0.00000000
N        N    0.89168000  0.27083000  0.46136000  0.00000000
N        N    0.72917000  0.46136000  0.10832000  0.00000000
N        N    0.46136000  0.72917000  0.89168000  0.00000000
N        N    0.39168000  0.22917000  0.03864000  0.00000000
N        N    0.96136000  0.77083000  0.60832000  0.00000000
N        N    0.46136000  0.89168000  0.27083000  0.00000000
N        N    0.89168000  0.53864000  0.27083000  0.00000000
N        N    0.27083000  0.53864000  0.10832000  0.00000000
N        N    0.03864000  0.39168000  0.22917000  0.00000000
N        N    0.96136000  0.60832000  0.22917000  0.00000000
N        N    0.53864000  0.10832000  0.27083000  0.00000000
N        N    0.72917000  0.10832000  0.53864000  0.00000000
N        N    0.79982000  0.85694000  0.38300000  0.00000000
N        N    0.29982000  0.64306000  0.11700000  0.00000000
N        N    0.88300000  0.70018000  0.64306000  0.00000000
N        N    0.85694000  0.79982000  0.61700000  0.00000000
N        N    0.88300000  0.35694000  0.70018000  0.00000000
N        N    0.38300000  0.85694000  0.20018000  0.00000000
N        N    0.61700000  0.20018000  0.85694000  0.00000000
N        N    0.70018000  0.35694000  0.11700000  0.00000000
N        N    0.61700000  0.14306000  0.20018000  0.00000000
N        N    0.88300000  0.64306000  0.29982000  0.00000000
N        N    0.14306000  0.20018000  0.61700000  0.00000000
N        N    0.64306000  0.11700000  0.29982000  0.00000000
N        N    0.64306000  0.29982000  0.88300000  0.00000000
N        N    0.14306000  0.61700000  0.79982000  0.00000000
N        N    0.11700000  0.29982000  0.64306000  0.00000000
N        N    0.14306000  0.79982000  0.38300000  0.00000000
N        N    0.20018000  0.61700000  0.14306000  0.00000000
N        N    0.70018000  0.88300000  0.35694000  0.00000000
N        N    0.64306000  0.70018000  0.11700000  0.00000000
N        N    0.70018000  0.64306000  0.88300000  0.00000000
N        N    0.29982000  0.88300000  0.64306000  0.00000000
N        N    0.35694000  0.70018000  0.88300000  0.00000000
N        N    0.38300000  0.14306000  0.79982000  0.00000000
N        N    0.79982000  0.61700000  0.85694000  0.00000000
N        N    0.64306000  0.88300000  0.70018000  0.00000000
N        N    0.20018000  0.85694000  0.61700000  0.00000000
N        N    0.70018000  0.11700000  0.64306000  0.00000000
N        N    0.35694000  0.88300000  0.29982000  0.00000000
N        N    0.20018000  0.14306000  0.38300000  0.00000000
N        N    0.20018000  0.38300000  0.85694000  0.00000000
N        N    0.29982000  0.11700000  0.35694000  0.00000000
N        N    0.35694000  0.11700000  0.70018000  0.00000000
N        N    0.85694000  0.38300000  0.79982000  0.00000000
N        N    0.38300000  0.79982000  0.85694000  0.00000000
N        N    0.11700000  0.35694000  0.29982000  0.00000000
N        N    0.35694000  0.29982000  0.11700000  0.00000000
N        N    0.79982000  0.14306000  0.61700000  0.00000000
N        N    0.85694000  0.61700000  0.20018000  0.00000000
N        N    0.61700000  0.85694000  0.79982000  0.00000000
N        N    0.29982000  0.35694000  0.88300000  0.00000000
N        N    0.11700000  0.64306000  0.70018000  0.00000000
N        N    0.61700000  0.79982000  0.14306000  0.00000000
N        N    0.79982000  0.38300000  0.14306000  0.00000000
N        N    0.14306000  0.38300000  0.20018000  0.00000000
N        N    0.88300000  0.29982000  0.35694000  0.00000000
N        N    0.11700000  0.70018000  0.35694000  0.00000000
N        N    0.38300000  0.20018000  0.14306000  0.00000000
N        N    0.85694000  0.20018000  0.38300000  0.00000000
N        N    0.85537000  0.80033000  0.38190000  0.00000000
N        N    0.35537000  0.69967000  0.11810000  0.00000000
N        N    0.88190000  0.64463000  0.69967000  0.00000000
N        N    0.80033000  0.85537000  0.61810000  0.00000000
N        N    0.88190000  0.30033000  0.64463000  0.00000000
N        N    0.38190000  0.80033000  0.14463000  0.00000000
N        N    0.61810000  0.14463000  0.80033000  0.00000000
N        N    0.64463000  0.30033000  0.11810000  0.00000000
N        N    0.61810000  0.19967000  0.14463000  0.00000000
N        N    0.88190000  0.69967000  0.35537000  0.00000000
N        N    0.19967000  0.14463000  0.61810000  0.00000000
N        N    0.69967000  0.11810000  0.35537000  0.00000000
N        N    0.69967000  0.35537000  0.88190000  0.00000000
N        N    0.19967000  0.61810000  0.85537000  0.00000000
N        N    0.11810000  0.35537000  0.69967000  0.00000000
N        N    0.19967000  0.85537000  0.38190000  0.00000000
N        N    0.14463000  0.61810000  0.19967000  0.00000000
N        N    0.64463000  0.88190000  0.30033000  0.00000000
N        N    0.69967000  0.64463000  0.11810000  0.00000000
N        N    0.64463000  0.69967000  0.88190000  0.00000000
N        N    0.35537000  0.88190000  0.69967000  0.00000000
N        N    0.30033000  0.64463000  0.88190000  0.00000000
N        N    0.38190000  0.19967000  0.85537000  0.00000000
N        N    0.85537000  0.61810000  0.80033000  0.00000000
N        N    0.69967000  0.88190000  0.64463000  0.00000000
N        N    0.14463000  0.80033000  0.61810000  0.00000000
N        N    0.64463000  0.11810000  0.69967000  0.00000000
N        N    0.30033000  0.88190000  0.35537000  0.00000000
N        N    0.14463000  0.19967000  0.38190000  0.00000000
N        N    0.14463000  0.38190000  0.80033000  0.00000000
N        N    0.35537000  0.11810000  0.30033000  0.00000000
N        N    0.30033000  0.11810000  0.64463000  0.00000000
N        N    0.80033000  0.38190000  0.85537000  0.00000000
N        N    0.38190000  0.85537000  0.80033000  0.00000000
N        N    0.11810000  0.30033000  0.35537000  0.00000000
N        N    0.30033000  0.35537000  0.11810000  0.00000000
N        N    0.85537000  0.19967000  0.61810000  0.00000000
N        N    0.80033000  0.61810000  0.14463000  0.00000000
N        N    0.61810000  0.80033000  0.85537000  0.00000000
N        N    0.35537000  0.30033000  0.88190000  0.00000000
N        N    0.11810000  0.69967000  0.64463000  0.00000000
N        N    0.61810000  0.85537000  0.19967000  0.00000000
N        N    0.85537000  0.38190000  0.19967000  0.00000000
N        N    0.19967000  0.38190000  0.14463000  0.00000000
N        N    0.88190000  0.35537000  0.30033000  0.00000000
N        N    0.11810000  0.64463000  0.30033000  0.00000000
N        N    0.38190000  0.14463000  0.19967000  0.00000000
N        N    0.80033000  0.14463000  0.38190000  0.00000000
N        N    0.88605000  0.81197000  0.30207000  0.00000000
N        N    0.38605000  0.68803000  0.19793000  0.00000000
N        N    0.80207000  0.61395000  0.68803000  0.00000000
N        N    0.81197000  0.88605000  0.69793000  0.00000000
N        N    0.80207000  0.31197000  0.61395000  0.00000000
N        N    0.30207000  0.81197000  0.11395000  0.00000000
N        N    0.69793000  0.11395000  0.81197000  0.00000000
N        N    0.61395000  0.31197000  0.19793000  0.00000000
N        N    0.69793000  0.18803000  0.11395000  0.00000000
N        N    0.80207000  0.68803000  0.38605000  0.00000000
N        N    0.18803000  0.11395000  0.69793000  0.00000000
N        N    0.68803000  0.19793000  0.38605000  0.00000000
N        N    0.68803000  0.38605000  0.80207000  0.00000000
N        N    0.18803000  0.69793000  0.88605000  0.00000000
N        N    0.19793000  0.38605000  0.68803000  0.00000000
N        N    0.18803000  0.88605000  0.30207000  0.00000000
N        N    0.11395000  0.69793000  0.18803000  0.00000000
N        N    0.61395000  0.80207000  0.31197000  0.00000000
N        N    0.68803000  0.61395000  0.19793000  0.00000000
N        N    0.61395000  0.68803000  0.80207000  0.00000000
N        N    0.38605000  0.80207000  0.68803000  0.00000000
N        N    0.31197000  0.61395000  0.80207000  0.00000000
N        N    0.30207000  0.18803000  0.88605000  0.00000000
N        N    0.88605000  0.69793000  0.81197000  0.00000000
N        N    0.68803000  0.80207000  0.61395000  0.00000000
N        N    0.11395000  0.81197000  0.69793000  0.00000000
N        N    0.61395000  0.19793000  0.68803000  0.00000000
N        N    0.31197000  0.80207000  0.38605000  0.00000000
N        N    0.11395000  0.18803000  0.30207000  0.00000000
N        N    0.11395000  0.30207000  0.81197000  0.00000000
N        N    0.38605000  0.19793000  0.31197000  0.00000000
N        N    0.31197000  0.19793000  0.61395000  0.00000000
N        N    0.81197000  0.30207000  0.88605000  0.00000000
N        N    0.30207000  0.88605000  0.81197000  0.00000000
N        N    0.19793000  0.31197000  0.38605000  0.00000000
N        N    0.31197000  0.38605000  0.19793000  0.00000000
N        N    0.88605000  0.18803000  0.69793000  0.00000000
N        N    0.81197000  0.69793000  0.11395000  0.00000000
N        N    0.69793000  0.81197000  0.88605000  0.00000000
N        N    0.38605000  0.31197000  0.80207000  0.00000000
N        N    0.19793000  0.68803000  0.61395000  0.00000000
N        N    0.69793000  0.88605000  0.18803000  0.00000000
N        N    0.88605000  0.30207000  0.18803000  0.00000000
N        N    0.18803000  0.30207000  0.11395000  0.00000000
N        N    0.80207000  0.38605000  0.31197000  0.00000000
N        N    0.19793000  0.61395000  0.31197000  0.00000000
N        N    0.30207000  0.11395000  0.18803000  0.00000000
N        N    0.81197000  0.11395000  0.30207000  0.00000000
N        N    0.95259000  0.62899000  0.42050000  0.00000000
N        N    0.45259000  0.87101000  0.07950000  0.00000000
N        N    0.92050000  0.54741000  0.87101000  0.00000000
N        N    0.62899000  0.95259000  0.57950000  0.00000000
N        N    0.92050000  0.12899000  0.54741000  0.00000000
N        N    0.42050000  0.62899000  0.04741000  0.00000000
N        N    0.57950000  0.04741000  0.62899000  0.00000000
N        N    0.54741000  0.12899000  0.07950000  0.00000000
N        N    0.57950000  0.37101000  0.04741000  0.00000000
N        N    0.92050000  0.87101000  0.45259000  0.00000000
N        N    0.37101000  0.04741000  0.57950000  0.00000000
N        N    0.87101000  0.07950000  0.45259000  0.00000000
N        N    0.87101000  0.45259000  0.92050000  0.00000000
N        N    0.37101000  0.57950000  0.95259000  0.00000000
N        N    0.07950000  0.45259000  0.87101000  0.00000000
N        N    0.37101000  0.95259000  0.42050000  0.00000000
N        N    0.04741000  0.57950000  0.37101000  0.00000000
N        N    0.54741000  0.92050000  0.12899000  0.00000000
N        N    0.87101000  0.54741000  0.07950000  0.00000000
N        N    0.54741000  0.87101000  0.92050000  0.00000000
N        N    0.45259000  0.92050000  0.87101000  0.00000000
N        N    0.12899000  0.54741000  0.92050000  0.00000000
N        N    0.42050000  0.37101000  0.95259000  0.00000000
N        N    0.95259000  0.57950000  0.62899000  0.00000000
N        N    0.87101000  0.92050000  0.54741000  0.00000000
N        N    0.04741000  0.62899000  0.57950000  0.00000000
N        N    0.54741000  0.07950000  0.87101000  0.00000000
N        N    0.12899000  0.92050000  0.45259000  0.00000000
N        N    0.04741000  0.37101000  0.42050000  0.00000000
N        N    0.04741000  0.42050000  0.62899000  0.00000000
N        N    0.45259000  0.07950000  0.12899000  0.00000000
N        N    0.12899000  0.07950000  0.54741000  0.00000000
N        N    0.62899000  0.42050000  0.95259000  0.00000000
N        N    0.42050000  0.95259000  0.62899000  0.00000000
N        N    0.07950000  0.12899000  0.45259000  0.00000000
N        N    0.12899000  0.45259000  0.07950000  0.00000000
N        N    0.95259000  0.37101000  0.57950000  0.00000000
N        N    0.62899000  0.57950000  0.04741000  0.00000000
N        N    0.57950000  0.62899000  0.95259000  0.00000000
N        N    0.45259000  0.12899000  0.92050000  0.00000000
N        N    0.07950000  0.87101000  0.54741000  0.00000000
N        N    0.57950000  0.95259000  0.37101000  0.00000000
N        N    0.95259000  0.42050000  0.37101000  0.00000000
N        N    0.37101000  0.42050000  0.04741000  0.00000000
N        N    0.92050000  0.45259000  0.12899000  0.00000000
N        N    0.07950000  0.54741000  0.12899000  0.00000000
N        N    0.42050000  0.04741000  0.37101000  0.00000000
N        N    0.62899000  0.04741000  0.42050000  0.00000000
N        N    0.80003000  0.91515000  0.27312000  0.00000000
N        N    0.30003000  0.58485000  0.22688000  0.00000000
N        N    0.77312000  0.69997000  0.58485000  0.00000000
N        N    0.91515000  0.80003000  0.72688000  0.00000000
N        N    0.77312000  0.41515000  0.69997000  0.00000000
N        N    0.27312000  0.91515000  0.19997000  0.00000000
N        N    0.72688000  0.19997000  0.91515000  0.00000000
N        N    0.69997000  0.41515000  0.22688000  0.00000000
N        N    0.72688000  0.08485000  0.19997000  0.00000000
N        N    0.77312000  0.58485000  0.30003000  0.00000000
N        N    0.08485000  0.19997000  0.72688000  0.00000000
N        N    0.58485000  0.22688000  0.30003000  0.00000000
N        N    0.58485000  0.30003000  0.77312000  0.00000000
N        N    0.08485000  0.72688000  0.80003000  0.00000000
N        N    0.22688000  0.30003000  0.58485000  0.00000000
N        N    0.08485000  0.80003000  0.27312000  0.00000000
N        N    0.19997000  0.72688000  0.08485000  0.00000000
N        N    0.69997000  0.77312000  0.41515000  0.00000000
N        N    0.58485000  0.69997000  0.22688000  0.00000000
N        N    0.69997000  0.58485000  0.77312000  0.00000000
N        N    0.30003000  0.77312000  0.58485000  0.00000000
N        N    0.41515000  0.69997000  0.77312000  0.00000000
N        N    0.27312000  0.08485000  0.80003000  0.00000000
N        N    0.80003000  0.72688000  0.91515000  0.00000000
N        N    0.58485000  0.77312000  0.69997000  0.00000000
N        N    0.19997000  0.91515000  0.72688000  0.00000000
N        N    0.69997000  0.22688000  0.58485000  0.00000000
N        N    0.41515000  0.77312000  0.30003000  0.00000000
N        N    0.19997000  0.08485000  0.27312000  0.00000000
N        N    0.19997000  0.27312000  0.91515000  0.00000000
N        N    0.30003000  0.22688000  0.41515000  0.00000000
N        N    0.41515000  0.22688000  0.69997000  0.00000000
N        N    0.91515000  0.27312000  0.80003000  0.00000000
N        N    0.27312000  0.80003000  0.91515000  0.00000000
N        N    0.22688000  0.41515000  0.30003000  0.00000000
N        N    0.41515000  0.30003000  0.22688000  0.00000000
N        N    0.80003000  0.08485000  0.72688000  0.00000000
N        N    0.91515000  0.72688000  0.19997000  0.00000000
N        N    0.72688000  0.91515000  0.80003000  0.00000000
N        N    0.30003000  0.41515000  0.77312000  0.00000000
N        N    0.22688000  0.58485000  0.69997000  0.00000000
N        N    0.72688000  0.80003000  0.08485000  0.00000000
N        N    0.80003000  0.27312000  0.08485000  0.00000000
N        N    0.08485000  0.27312000  0.19997000  0.00000000
N        N    0.77312000  0.30003000  0.41515000  0.00000000
N        N    0.22688000  0.69997000  0.41515000  0.00000000
N        N    0.27312000  0.19997000  0.08485000  0.00000000
N        N    0.91515000  0.19997000  0.27312000  0.00000000
H        H    0.86489000  0.79052000  0.49687000  0.00000000
H        H    0.36489000  0.70948000  0.00313000  0.00000000
H        H    0.99687000  0.63511000  0.70948000  0.00000000
H        H    0.79052000  0.86489000  0.50313000  0.00000000
H        H    0.99687000  0.29052000  0.63511000  0.00000000
H        H    0.49687000  0.79052000  0.13511000  0.00000000
H        H    0.50313000  0.13511000  0.79052000  0.00000000
H        H    0.63511000  0.29052000  0.00313000  0.00000000
H        H    0.50313000  0.20948000  0.13511000  0.00000000
H        H    0.99687000  0.70948000  0.36489000  0.00000000
H        H    0.20948000  0.13511000  0.50313000  0.00000000
H        H    0.70948000  0.00313000  0.36489000  0.00000000
H        H    0.70948000  0.36489000  0.99687000  0.00000000
H        H    0.20948000  0.50313000  0.86489000  0.00000000
H        H    0.00313000  0.36489000  0.70948000  0.00000000
H        H    0.20948000  0.86489000  0.49687000  0.00000000
H        H    0.13511000  0.50313000  0.20948000  0.00000000
H        H    0.63511000  0.99687000  0.29052000  0.00000000
H        H    0.70948000  0.63511000  0.00313000  0.00000000
H        H    0.63511000  0.70948000  0.99687000  0.00000000
H        H    0.36489000  0.99687000  0.70948000  0.00000000
H        H    0.29052000  0.63511000  0.99687000  0.00000000
H        H    0.49687000  0.20948000  0.86489000  0.00000000
H        H    0.86489000  0.50313000  0.79052000  0.00000000
H        H    0.70948000  0.99687000  0.63511000  0.00000000
H        H    0.13511000  0.79052000  0.50313000  0.00000000
H        H    0.63511000  0.00313000  0.70948000  0.00000000
H        H    0.29052000  0.99687000  0.36489000  0.00000000
H        H    0.13511000  0.20948000  0.49687000  0.00000000
H        H    0.13511000  0.49687000  0.79052000  0.00000000
H        H    0.36489000  0.00313000  0.29052000  0.00000000
H        H    0.29052000  0.00313000  0.63511000  0.00000000
H        H    0.79052000  0.49687000  0.86489000  0.00000000
H        H    0.49687000  0.86489000  0.79052000  0.00000000
H        H    0.00313000  0.29052000  0.36489000  0.00000000
H        H    0.29052000  0.36489000  0.00313000  0.00000000
H        H    0.86489000  0.20948000  0.50313000  0.00000000
H        H    0.79052000  0.50313000  0.13511000  0.00000000
H        H    0.50313000  0.79052000  0.86489000  0.00000000
H        H    0.36489000  0.29052000  0.99687000  0.00000000
H        H    0.00313000  0.70948000  0.63511000  0.00000000
H        H    0.50313000  0.86489000  0.20948000  0.00000000
H        H    0.86489000  0.49687000  0.20948000  0.00000000
H        H    0.20948000  0.49687000  0.13511000  0.00000000
H        H    0.99687000  0.36489000  0.29052000  0.00000000
H        H    0.00313000  0.63511000  0.29052000  0.00000000
H        H    0.49687000  0.13511000  0.20948000  0.00000000
H        H    0.79052000  0.13511000  0.49687000  0.00000000
H        H    0.80880000  0.81268000  0.44442000  0.00000000
H        H    0.30880000  0.68732000  0.05558000  0.00000000
H        H    0.94442000  0.69120000  0.68732000  0.00000000
H        H    0.81268000  0.80880000  0.55558000  0.00000000
H        H    0.94442000  0.31268000  0.69120000  0.00000000
H        H    0.44442000  0.81268000  0.19120000  0.00000000
H        H    0.55558000  0.19120000  0.81268000  0.00000000
H        H    0.69120000  0.31268000  0.05558000  0.00000000
H        H    0.55558000  0.18732000  0.19120000  0.00000000
H        H    0.94442000  0.68732000  0.30880000  0.00000000
H        H    0.18732000  0.19120000  0.55558000  0.00000000
H        H    0.68732000  0.05558000  0.30880000  0.00000000
H        H    0.68732000  0.30880000  0.94442000  0.00000000
H        H    0.18732000  0.55558000  0.80880000  0.00000000
H        H    0.05558000  0.30880000  0.68732000  0.00000000
H        H    0.18732000  0.80880000  0.44442000  0.00000000
H        H    0.19120000  0.55558000  0.18732000  0.00000000
H        H    0.69120000  0.94442000  0.31268000  0.00000000
H        H    0.68732000  0.69120000  0.05558000  0.00000000
H        H    0.69120000  0.68732000  0.94442000  0.00000000
H        H    0.30880000  0.94442000  0.68732000  0.00000000
H        H    0.31268000  0.69120000  0.94442000  0.00000000
H        H    0.44442000  0.18732000  0.80880000  0.00000000
H        H    0.80880000  0.55558000  0.81268000  0.00000000
H        H    0.68732000  0.94442000  0.69120000  0.00000000
H        H    0.19120000  0.81268000  0.55558000  0.00000000
H        H    0.69120000  0.05558000  0.68732000  0.00000000
H        H    0.31268000  0.94442000  0.30880000  0.00000000
H        H    0.19120000  0.18732000  0.44442000  0.00000000
H        H    0.19120000  0.44442000  0.81268000  0.00000000
H        H    0.30880000  0.05558000  0.31268000  0.00000000
H        H    0.31268000  0.05558000  0.69120000  0.00000000
H        H    0.81268000  0.44442000  0.80880000  0.00000000
H        H    0.44442000  0.80880000  0.81268000  0.00000000
H        H    0.05558000  0.31268000  0.30880000  0.00000000
H        H    0.31268000  0.30880000  0.05558000  0.00000000
H        H    0.80880000  0.18732000  0.55558000  0.00000000
H        H    0.81268000  0.55558000  0.19120000  0.00000000
H        H    0.55558000  0.81268000  0.80880000  0.00000000
H        H    0.30880000  0.31268000  0.94442000  0.00000000
H        H    0.05558000  0.68732000  0.69120000  0.00000000
H        H    0.55558000  0.80880000  0.18732000  0.00000000
H        H    0.80880000  0.44442000  0.18732000  0.00000000
H        H    0.18732000  0.44442000  0.19120000  0.00000000
H        H    0.94442000  0.30880000  0.31268000  0.00000000
H        H    0.05558000  0.69120000  0.31268000  0.00000000
H        H    0.44442000  0.19120000  0.18732000  0.00000000
H        H    0.81268000  0.19120000  0.44442000  0.00000000
H        H    0.92062000  0.64495000  0.58587000  0.00000000
H        H    0.42062000  0.85505000  0.91413000  0.00000000
H        H    0.08587000  0.57938000  0.85505000  0.00000000
H        H    0.64495000  0.92062000  0.41413000  0.00000000
H        H    0.08587000  0.14495000  0.57938000  0.00000000
H        H    0.58587000  0.64495000  0.07938000  0.00000000
H        H    0.41413000  0.07938000  0.64495000  0.00000000
H        H    0.57938000  0.14495000  0.91413000  0.00000000
H        H    0.41413000  0.35505000  0.07938000  0.00000000
H        H    0.08587000  0.85505000  0.42062000  0.00000000
H        H    0.35505000  0.07938000  0.41413000  0.00000000
H        H    0.85505000  0.91413000  0.42062000  0.00000000
H        H    0.85505000  0.42062000  0.08587000  0.00000000
H        H    0.35505000  0.41413000  0.92062000  0.00000000
H        H    0.91413000  0.42062000  0.85505000  0.00000000
H        H    0.35505000  0.92062000  0.58587000  0.00000000
H        H    0.07938000  0.41413000  0.35505000  0.00000000
H        H    0.57938000  0.08587000  0.14495000  0.00000000
H        H    0.85505000  0.57938000  0.91413000  0.00000000
H        H    0.57938000  0.85505000  0.08587000  0.00000000
H        H    0.42062000  0.08587000  0.85505000  0.00000000
H        H    0.14495000  0.57938000  0.08587000  0.00000000
H        H    0.58587000  0.35505000  0.92062000  0.00000000
H        H    0.92062000  0.41413000  0.64495000  0.00000000
H        H    0.85505000  0.08587000  0.57938000  0.00000000
H        H    0.07938000  0.64495000  0.41413000  0.00000000
H        H    0.57938000  0.91413000  0.85505000  0.00000000
H        H    0.14495000  0.08587000  0.42062000  0.00000000
H        H    0.07938000  0.35505000  0.58587000  0.00000000
H        H    0.07938000  0.58587000  0.64495000  0.00000000
H        H    0.42062000  0.91413000  0.14495000  0.00000000
H        H    0.14495000  0.91413000  0.57938000  0.00000000
H        H    0.64495000  0.58587000  0.92062000  0.00000000
H        H    0.58587000  0.92062000  0.64495000  0.00000000
H        H    0.91413000  0.14495000  0.42062000  0.00000000
H        H    0.14495000  0.42062000  0.91413000  0.00000000
H        H    0.92062000  0.35505000  0.41413000  0.00000000
H        H    0.64495000  0.41413000  0.07938000  0.00000000
H        H    0.41413000  0.64495000  0.92062000  0.00000000
H        H    0.42062000  0.14495000  0.08587000  0.00000000
H        H    0.91413000  0.85505000  0.57938000  0.00000000
H        H    0.41413000  0.92062000  0.35505000  0.00000000
H        H    0.92062000  0.58587000  0.35505000  0.00000000
H        H    0.35505000  0.58587000  0.07938000  0.00000000
H        H    0.08587000  0.42062000  0.14495000  0.00000000
H        H    0.91413000  0.57938000  0.14495000  0.00000000
H        H    0.58587000  0.07938000  0.35505000  0.00000000
H        H    0.64495000  0.07938000  0.58587000  0.00000000
H        H    0.96845000  0.64032000  0.53804000  0.00000000
H        H    0.46845000  0.85968000  0.96196000  0.00000000
H        H    0.03804000  0.53155000  0.85968000  0.00000000
H        H    0.64032000  0.96845000  0.46196000  0.00000000
H        H    0.03804000  0.14032000  0.53155000  0.00000000
H        H    0.53804000  0.64032000  0.03155000  0.00000000
H        H    0.46196000  0.03155000  0.64032000  0.00000000
H        H    0.53155000  0.14032000  0.96196000  0.00000000
H        H    0.46196000  0.35968000  0.03155000  0.00000000
H        H    0.03804000  0.85968000  0.46845000  0.00000000
H        H    0.35968000  0.03155000  0.46196000  0.00000000
H        H    0.85968000  0.96196000  0.46845000  0.00000000
H        H    0.85968000  0.46845000  0.03804000  0.00000000
H        H    0.35968000  0.46196000  0.96845000  0.00000000
H        H    0.96196000  0.46845000  0.85968000  0.00000000
H        H    0.35968000  0.96845000  0.53804000  0.00000000
H        H    0.03155000  0.46196000  0.35968000  0.00000000
H        H    0.53155000  0.03804000  0.14032000  0.00000000
H        H    0.85968000  0.53155000  0.96196000  0.00000000
H        H    0.53155000  0.85968000  0.03804000  0.00000000
H        H    0.46845000  0.03804000  0.85968000  0.00000000
H        H    0.14032000  0.53155000  0.03804000  0.00000000
H        H    0.53804000  0.35968000  0.96845000  0.00000000
H        H    0.96845000  0.46196000  0.64032000  0.00000000
H        H    0.85968000  0.03804000  0.53155000  0.00000000
H        H    0.03155000  0.64032000  0.46196000  0.00000000
H        H    0.53155000  0.96196000  0.85968000  0.00000000
H        H    0.14032000  0.03804000  0.46845000  0.00000000
H        H    0.03155000  0.35968000  0.53804000  0.00000000
H        H    0.03155000  0.53804000  0.64032000  0.00000000
H        H    0.46845000  0.96196000  0.14032000  0.00000000
H        H    0.14032000  0.96196000  0.53155000  0.00000000
H        H    0.64032000  0.53804000  0.96845000  0.00000000
H        H    0.53804000  0.96845000  0.64032000  0.00000000
H        H    0.96196000  0.14032000  0.46845000  0.00000000
H        H    0.14032000  0.46845000  0.96196000  0.00000000
H        H    0.96845000  0.35968000  0.46196000  0.00000000
H        H    0.64032000  0.46196000  0.03155000  0.00000000
H        H    0.46196000  0.64032000  0.96845000  0.00000000
H        H    0.46845000  0.14032000  0.03804000  0.00000000
H        H    0.96196000  0.85968000  0.53155000  0.00000000
H        H    0.46196000  0.96845000  0.35968000  0.00000000
H        H    0.96845000  0.53804000  0.35968000  0.00000000
H        H    0.35968000  0.53804000  0.03155000  0.00000000
H        H    0.03804000  0.46845000  0.14032000  0.00000000
H        H    0.96196000  0.53155000  0.14032000  0.00000000
H        H    0.53804000  0.03155000  0.35968000  0.00000000
H        H    0.64032000  0.03155000  0.53804000  0.00000000
H        H    0.89264000  0.77459000  0.29251000  0.00000000
H        H    0.39264000  0.72541000  0.20749000  0.00000000
H        H    0.79251000  0.60736000  0.72541000  0.00000000
H        H    0.77459000  0.89264000  0.70749000  0.00000000
H        H    0.79251000  0.27459000  0.60736000  0.00000000
H        H    0.29251000  0.77459000  0.10736000  0.00000000
H        H    0.70749000  0.10736000  0.77459000  0.00000000
H        H    0.60736000  0.27459000  0.20749000  0.00000000
H        H    0.70749000  0.22541000  0.10736000  0.00000000
H        H    0.79251000  0.72541000  0.39264000  0.00000000
H        H    0.22541000  0.10736000  0.70749000  0.00000000
H        H    0.72541000  0.20749000  0.39264000  0.00000000
H        H    0.72541000  0.39264000  0.79251000  0.00000000
H        H    0.22541000  0.70749000  0.89264000  0.00000000
H        H    0.20749000  0.39264000  0.72541000  0.00000000
H        H    0.22541000  0.89264000  0.29251000  0.00000000
H        H    0.10736000  0.70749000  0.22541000  0.00000000
H        H    0.60736000  0.79251000  0.27459000  0.00000000
H        H    0.72541000  0.60736000  0.20749000  0.00000000
H        H    0.60736000  0.72541000  0.79251000  0.00000000
H        H    0.39264000  0.79251000  0.72541000  0.00000000
H        H    0.27459000  0.60736000  0.79251000  0.00000000
H        H    0.29251000  0.22541000  0.89264000  0.00000000
H        H    0.89264000  0.70749000  0.77459000  0.00000000
H        H    0.72541000  0.79251000  0.60736000  0.00000000
H        H    0.10736000  0.77459000  0.70749000  0.00000000
H        H    0.60736000  0.20749000  0.72541000  0.00000000
H        H    0.27459000  0.79251000  0.39264000  0.00000000
H        H    0.10736000  0.22541000  0.29251000  0.00000000
H        H    0.10736000  0.29251000  0.77459000  0.00000000
H        H    0.39264000  0.20749000  0.27459000  0.00000000
H        H    0.27459000  0.20749000  0.60736000  0.00000000
H        H    0.77459000  0.29251000  0.89264000  0.00000000
H        H    0.29251000  0.89264000  0.77459000  0.00000000
H        H    0.20749000  0.27459000  0.39264000  0.00000000
H        H    0.27459000  0.39264000  0.20749000  0.00000000
H        H    0.89264000  0.22541000  0.70749000  0.00000000
H        H    0.77459000  0.70749000  0.10736000  0.00000000
H        H    0.70749000  0.77459000  0.89264000  0.00000000
H        H    0.39264000  0.27459000  0.79251000  0.00000000
H        H    0.20749000  0.72541000  0.60736000  0.00000000
H        H    0.70749000  0.89264000  0.22541000  0.00000000
H        H    0.89264000  0.29251000  0.22541000  0.00000000
H        H    0.22541000  0.29251000  0.10736000  0.00000000
H        H    0.79251000  0.39264000  0.27459000  0.00000000
H        H    0.20749000  0.60736000  0.27459000  0.00000000
H        H    0.29251000  0.10736000  0.22541000  0.00000000
H        H    0.77459000  0.10736000  0.29251000  0.00000000
H        H    0.90332000  0.84068000  0.28183000  0.00000000
H        H    0.40332000  0.65932000  0.21817000  0.00000000
H        H    0.78183000  0.59668000  0.65932000  0.00000000
H        H    0.84068000  0.90332000  0.71817000  0.00000000
H        H    0.78183000  0.34068000  0.59668000  0.00000000
H        H    0.28183000  0.84068000  0.09668000  0.00000000
H        H    0.71817000  0.09668000  0.84068000  0.00000000
H        H    0.59668000  0.34068000  0.21817000  0.00000000
H        H    0.71817000  0.15932000  0.09668000  0.00000000
H        H    0.78183000  0.65932000  0.40332000  0.00000000
H        H    0.15932000  0.09668000  0.71817000  0.00000000
H        H    0.65932000  0.21817000  0.40332000  0.00000000
H        H    0.65932000  0.40332000  0.78183000  0.00000000
H        H    0.15932000  0.71817000  0.90332000  0.00000000
H        H    0.21817000  0.40332000  0.65932000  0.00000000
H        H    0.15932000  0.90332000  0.28183000  0.00000000
H        H    0.09668000  0.71817000  0.15932000  0.00000000
H        H    0.59668000  0.78183000  0.34068000  0.00000000
H        H    0.65932000  0.59668000  0.21817000  0.00000000
H        H    0.59668000  0.65932000  0.78183000  0.00000000
H        H    0.40332000  0.78183000  0.65932000  0.00000000
H        H    0.34068000  0.59668000  0.78183000  0.00000000
H        H    0.28183000  0.15932000  0.90332000  0.00000000
H        H    0.90332000  0.71817000  0.84068000  0.00000000
H        H    0.65932000  0.78183000  0.59668000  0.00000000
H        H    0.09668000  0.84068000  0.71817000  0.00000000
H        H    0.59668000  0.21817000  0.65932000  0.00000000
H        H    0.34068000  0.78183000  0.40332000  0.00000000
H        H    0.09668000  0.15932000  0.28183000  0.00000000
H        H    0.09668000  0.28183000  0.84068000  0.00000000
H        H    0.40332000  0.21817000  0.34068000  0.00000000
H        H    0.34068000  0.21817000  0.59668000  0.00000000
H        H    0.84068000  0.28183000  0.90332000  0.00000000
H        H    0.28183000  0.90332000  0.84068000  0.00000000
H        H    0.21817000  0.34068000  0.40332000  0.00000000
H        H    0.34068000  0.40332000  0.21817000  0.00000000
H        H    0.90332000  0.15932000  0.71817000  0.00000000
H        H    0.84068000  0.71817000  0.09668000  0.00000000
H        H    0.71817000  0.84068000  0.90332000  0.00000000
H        H    0.40332000  0.34068000  0.78183000  0.00000000
H        H    0.21817000  0.65932000  0.59668000  0.00000000
H        H    0.71817000  0.90332000  0.15932000  0.00000000
H        H    0.90332000  0.28183000  0.15932000  0.00000000
H        H    0.15932000  0.28183000  0.09668000  0.00000000
H        H    0.78183000  0.40332000  0.34068000  0.00000000
H        H    0.21817000  0.59668000  0.34068000  0.00000000
H        H    0.28183000  0.09668000  0.15932000  0.00000000
H        H    0.84068000  0.09668000  0.28183000  0.00000000
Zn       Zn   0.39639000  0.75000000  0.10361000  0.00000000
Zn       Zn   0.60361000  0.25000000  0.10361000  0.00000000
Zn       Zn   0.89639000  0.75000000  0.39639000  0.00000000
Zn       Zn   0.25000000  0.60361000  0.89639000  0.00000000
Zn       Zn   0.89639000  0.60361000  0.75000000  0.00000000
Zn       Zn   0.75000000  0.89639000  0.60361000  0.00000000
Zn       Zn   0.60361000  0.10361000  0.75000000  0.00000000
Zn       Zn   0.25000000  0.89639000  0.39639000  0.00000000
Zn       Zn   0.10361000  0.39639000  0.75000000  0.00000000
Zn       Zn   0.25000000  0.10361000  0.60361000  0.00000000
Zn       Zn   0.75000000  0.39639000  0.89639000  0.00000000
Zn       Zn   0.39639000  0.89639000  0.75000000  0.00000000
Zn       Zn   0.10361000  0.25000000  0.39639000  0.00000000
Zn       Zn   0.89639000  0.25000000  0.60361000  0.00000000
Zn       Zn   0.75000000  0.60361000  0.10361000  0.00000000
Zn       Zn   0.60361000  0.75000000  0.89639000  0.00000000
Zn       Zn   0.39639000  0.25000000  0.89639000  0.00000000
Zn       Zn   0.10361000  0.75000000  0.60361000  0.00000000
Zn       Zn   0.60361000  0.89639000  0.25000000  0.00000000
Zn       Zn   0.25000000  0.39639000  0.10361000  0.00000000
Zn       Zn   0.89639000  0.39639000  0.25000000  0.00000000
Zn       Zn   0.10361000  0.60361000  0.25000000  0.00000000
Zn       Zn   0.39639000  0.10361000  0.25000000  0.00000000
Zn       Zn   0.75000000  0.10361000  0.39639000  0.00000000
Zn       Zn   0.75000000  0.89830000  0.39830000  0.00000000
Zn       Zn   0.60170000  0.75000000  0.10170000  0.00000000
Zn       Zn   0.39830000  0.10170000  0.75000000  0.00000000
Zn       Zn   0.60170000  0.25000000  0.89830000  0.00000000
Zn       Zn   0.89830000  0.39830000  0.75000000  0.00000000
Zn       Zn   0.10170000  0.75000000  0.39830000  0.00000000
Zn       Zn   0.25000000  0.10170000  0.39830000  0.00000000
Zn       Zn   0.10170000  0.25000000  0.60170000  0.00000000
Zn       Zn   0.10170000  0.60170000  0.75000000  0.00000000
Zn       Zn   0.25000000  0.89830000  0.60170000  0.00000000
Zn       Zn   0.75000000  0.60170000  0.89830000  0.00000000
Zn       Zn   0.60170000  0.89830000  0.75000000  0.00000000
Zn       Zn   0.25000000  0.39830000  0.89830000  0.00000000
Zn       Zn   0.89830000  0.25000000  0.39830000  0.00000000
Zn       Zn   0.75000000  0.39830000  0.10170000  0.00000000
Zn       Zn   0.39830000  0.75000000  0.89830000  0.00000000
Zn       Zn   0.39830000  0.25000000  0.10170000  0.00000000
Zn       Zn   0.89830000  0.75000000  0.60170000  0.00000000
Zn       Zn   0.39830000  0.89830000  0.25000000  0.00000000
Zn       Zn   0.25000000  0.60170000  0.10170000  0.00000000
Zn       Zn   0.10170000  0.39830000  0.25000000  0.00000000
Zn       Zn   0.89830000  0.60170000  0.25000000  0.00000000
Zn       Zn   0.60170000  0.10170000  0.25000000  0.00000000
Zn       Zn   0.75000000  0.10170000  0.60170000  0.00000000
