data_ZIF-5

_cell_length_a  21.96190000
_cell_length_b  21.96190000
_cell_length_c  21.96190000
_cell_angle_alpha  90.00000000
_cell_angle_beta  90.00000000
_cell_angle_gamma  90.00000000


_symmetry_space_group_name_Hall ' P 1'
_symmetry_space_group_name_H-M  'P 1'
_symmetry_Int_Tables_number     1

loop_
_atom_site_label
_atom_site_type_symbol
_atom_site_fract_x
_atom_site_fract_y
_atom_site_fract_z
_atom_site_charge
In       In   0.00000000  0.50000000  0.00000000  0.00000000
In       In   0.50000000  0.00000000  0.50000000  0.00000000
In       In   0.50000000  0.00000000  0.00000000  0.00000000
In       In   0.25000000  0.25000000  0.25000000  0.00000000
In       In   0.00000000  0.00000000  0.50000000  0.00000000
In       In   0.75000000  0.75000000  0.25000000  0.00000000
In       In   0.25000000  0.75000000  0.75000000  0.00000000
In       In   0.50000000  0.50000000  0.50000000  0.00000000
In       In   0.00000000  0.00000000  0.00000000  0.00000000
In       In   0.75000000  0.75000000  0.75000000  0.00000000
In       In   0.25000000  0.25000000  0.75000000  0.00000000
In       In   0.00000000  0.50000000  0.50000000  0.00000000
In       In   0.50000000  0.50000000  0.00000000  0.00000000
In       In   0.75000000  0.25000000  0.25000000  0.00000000
In       In   0.25000000  0.75000000  0.25000000  0.00000000
In       In   0.75000000  0.25000000  0.75000000  0.00000000
Zn       Zn   0.12500000  0.50000000  0.25000000  0.00000000
Zn       Zn   0.75000000  0.12500000  0.00000000  0.00000000
Zn       Zn   0.25000000  0.62500000  0.50000000  0.00000000
Zn       Zn   0.75000000  0.37500000  0.50000000  0.00000000
Zn       Zn   0.50000000  0.25000000  0.12500000  0.00000000
Zn       Zn   0.62500000  0.00000000  0.75000000  0.00000000
Zn       Zn   0.25000000  0.12500000  0.50000000  0.00000000
Zn       Zn   0.75000000  0.87500000  0.50000000  0.00000000
Zn       Zn   0.75000000  0.62500000  0.00000000  0.00000000
Zn       Zn   0.50000000  0.75000000  0.87500000  0.00000000
Zn       Zn   0.50000000  0.75000000  0.37500000  0.00000000
Zn       Zn   0.00000000  0.25000000  0.87500000  0.00000000
Zn       Zn   0.37500000  0.00000000  0.25000000  0.00000000
Zn       Zn   0.25000000  0.87500000  0.00000000  0.00000000
Zn       Zn   0.87500000  0.00000000  0.25000000  0.00000000
Zn       Zn   0.12500000  0.00000000  0.75000000  0.00000000
Zn       Zn   0.00000000  0.75000000  0.62500000  0.00000000
Zn       Zn   0.25000000  0.37500000  0.00000000  0.00000000
Zn       Zn   0.00000000  0.25000000  0.37500000  0.00000000
Zn       Zn   0.87500000  0.50000000  0.75000000  0.00000000
Zn       Zn   0.37500000  0.50000000  0.75000000  0.00000000
Zn       Zn   0.62500000  0.50000000  0.25000000  0.00000000
Zn       Zn   0.00000000  0.75000000  0.12500000  0.00000000
Zn       Zn   0.50000000  0.25000000  0.62500000  0.00000000
N        N    0.07479000  0.53164000  0.31821000  0.00000000
N        N    0.17521000  0.56821000  0.21836000  0.00000000
N        N    0.18179000  0.07479000  0.46836000  0.00000000
N        N    0.43179000  0.71836000  0.32479000  0.00000000
N        N    0.18179000  0.92521000  0.03164000  0.00000000
N        N    0.96836000  0.31821000  0.92521000  0.00000000
N        N    0.71836000  0.32479000  0.43179000  0.00000000
N        N    0.18179000  0.57479000  0.53164000  0.00000000
N        N    0.82479000  0.06821000  0.28164000  0.00000000
N        N    0.68179000  0.07479000  0.03164000  0.00000000
N        N    0.07479000  0.46836000  0.18179000  0.00000000
N        N    0.81821000  0.07479000  0.96836000  0.00000000
N        N    0.03164000  0.68179000  0.07479000  0.00000000
N        N    0.81821000  0.92521000  0.53164000  0.00000000
N        N    0.17521000  0.43179000  0.28164000  0.00000000
N        N    0.96836000  0.68179000  0.57479000  0.00000000
N        N    0.17521000  0.06821000  0.78164000  0.00000000
N        N    0.67521000  0.56821000  0.28164000  0.00000000
N        N    0.57479000  0.03164000  0.81821000  0.00000000
N        N    0.56821000  0.21836000  0.17521000  0.00000000
N        N    0.06821000  0.28164000  0.82479000  0.00000000
N        N    0.93179000  0.28164000  0.32479000  0.00000000
N        N    0.32479000  0.93179000  0.28164000  0.00000000
N        N    0.82479000  0.43179000  0.78164000  0.00000000
N        N    0.53164000  0.68179000  0.42521000  0.00000000
N        N    0.71836000  0.82479000  0.56821000  0.00000000
N        N    0.67521000  0.93179000  0.78164000  0.00000000
N        N    0.82479000  0.56821000  0.71836000  0.00000000
N        N    0.96836000  0.18179000  0.42521000  0.00000000
N        N    0.28164000  0.17521000  0.43179000  0.00000000
N        N    0.46836000  0.68179000  0.92521000  0.00000000
N        N    0.92521000  0.53164000  0.81821000  0.00000000
N        N    0.32479000  0.56821000  0.78164000  0.00000000
N        N    0.43179000  0.78164000  0.82479000  0.00000000
N        N    0.28164000  0.67521000  0.56821000  0.00000000
N        N    0.46836000  0.18179000  0.07479000  0.00000000
N        N    0.68179000  0.42521000  0.53164000  0.00000000
N        N    0.78164000  0.82479000  0.43179000  0.00000000
N        N    0.21836000  0.67521000  0.43179000  0.00000000
N        N    0.32479000  0.43179000  0.71836000  0.00000000
N        N    0.42521000  0.03164000  0.31821000  0.00000000
N        N    0.46836000  0.31821000  0.57479000  0.00000000
N        N    0.81821000  0.57479000  0.03164000  0.00000000
N        N    0.53164000  0.18179000  0.57479000  0.00000000
N        N    0.53164000  0.81821000  0.92521000  0.00000000
N        N    0.21836000  0.17521000  0.56821000  0.00000000
N        N    0.78164000  0.32479000  0.56821000  0.00000000
N        N    0.71836000  0.17521000  0.93179000  0.00000000
N        N    0.57479000  0.96836000  0.68179000  0.00000000
N        N    0.53164000  0.31821000  0.07479000  0.00000000
N        N    0.43179000  0.21836000  0.67521000  0.00000000
N        N    0.03164000  0.81821000  0.57479000  0.00000000
N        N    0.42521000  0.96836000  0.18179000  0.00000000
N        N    0.78164000  0.17521000  0.06821000  0.00000000
N        N    0.57479000  0.46836000  0.31821000  0.00000000
N        N    0.82479000  0.93179000  0.21836000  0.00000000
N        N    0.31821000  0.57479000  0.46836000  0.00000000
N        N    0.71836000  0.67521000  0.06821000  0.00000000
N        N    0.81821000  0.42521000  0.46836000  0.00000000
N        N    0.43179000  0.28164000  0.17521000  0.00000000
N        N    0.93179000  0.21836000  0.82479000  0.00000000
N        N    0.67521000  0.06821000  0.71836000  0.00000000
N        N    0.31821000  0.07479000  0.53164000  0.00000000
N        N    0.06821000  0.21836000  0.32479000  0.00000000
N        N    0.18179000  0.42521000  0.96836000  0.00000000
N        N    0.68179000  0.92521000  0.46836000  0.00000000
N        N    0.21836000  0.32479000  0.06821000  0.00000000
N        N    0.56821000  0.78164000  0.32479000  0.00000000
N        N    0.78164000  0.67521000  0.93179000  0.00000000
N        N    0.57479000  0.53164000  0.18179000  0.00000000
N        N    0.68179000  0.57479000  0.96836000  0.00000000
N        N    0.56821000  0.71836000  0.82479000  0.00000000
N        N    0.21836000  0.82479000  0.93179000  0.00000000
N        N    0.17521000  0.93179000  0.71836000  0.00000000
N        N    0.46836000  0.81821000  0.42521000  0.00000000
N        N    0.03164000  0.18179000  0.92521000  0.00000000
N        N    0.92521000  0.96836000  0.31821000  0.00000000
N        N    0.31821000  0.92521000  0.96836000  0.00000000
N        N    0.32479000  0.06821000  0.21836000  0.00000000
N        N    0.28164000  0.82479000  0.06821000  0.00000000
N        N    0.31821000  0.42521000  0.03164000  0.00000000
N        N    0.07479000  0.03164000  0.68179000  0.00000000
N        N    0.92521000  0.03164000  0.18179000  0.00000000
N        N    0.93179000  0.71836000  0.17521000  0.00000000
N        N    0.96836000  0.81821000  0.07479000  0.00000000
N        N    0.06821000  0.71836000  0.67521000  0.00000000
N        N    0.42521000  0.53164000  0.68179000  0.00000000
N        N    0.07479000  0.96836000  0.81821000  0.00000000
N        N    0.93179000  0.78164000  0.67521000  0.00000000
N        N    0.28164000  0.32479000  0.93179000  0.00000000
N        N    0.03164000  0.31821000  0.42521000  0.00000000
N        N    0.92521000  0.46836000  0.68179000  0.00000000
N        N    0.42521000  0.46836000  0.81821000  0.00000000
N        N    0.67521000  0.43179000  0.21836000  0.00000000
N        N    0.06821000  0.78164000  0.17521000  0.00000000
N        N    0.56821000  0.28164000  0.67521000  0.00000000
N        N    0.02433000  0.53055000  0.40645000  0.00000000
N        N    0.22567000  0.65645000  0.21945000  0.00000000
N        N    0.09355000  0.02433000  0.46945000  0.00000000
N        N    0.34355000  0.71945000  0.27433000  0.00000000
N        N    0.09355000  0.97567000  0.03055000  0.00000000
N        N    0.96945000  0.40645000  0.97567000  0.00000000
N        N    0.71945000  0.27433000  0.34355000  0.00000000
N        N    0.09355000  0.52433000  0.53055000  0.00000000
N        N    0.77433000  0.15645000  0.28055000  0.00000000
N        N    0.59355000  0.02433000  0.03055000  0.00000000
N        N    0.02433000  0.46945000  0.09355000  0.00000000
N        N    0.90645000  0.02433000  0.96945000  0.00000000
N        N    0.03055000  0.59355000  0.02433000  0.00000000
N        N    0.90645000  0.97567000  0.53055000  0.00000000
N        N    0.22567000  0.34355000  0.28055000  0.00000000
N        N    0.96945000  0.59355000  0.52433000  0.00000000
N        N    0.22567000  0.15645000  0.78055000  0.00000000
N        N    0.72567000  0.65645000  0.28055000  0.00000000
N        N    0.52433000  0.03055000  0.90645000  0.00000000
N        N    0.65645000  0.21945000  0.22567000  0.00000000
N        N    0.15645000  0.28055000  0.77433000  0.00000000
N        N    0.84355000  0.28055000  0.27433000  0.00000000
N        N    0.27433000  0.84355000  0.28055000  0.00000000
N        N    0.77433000  0.34355000  0.78055000  0.00000000
N        N    0.53055000  0.59355000  0.47567000  0.00000000
N        N    0.71945000  0.77433000  0.65645000  0.00000000
N        N    0.72567000  0.84355000  0.78055000  0.00000000
N        N    0.77433000  0.65645000  0.71945000  0.00000000
N        N    0.96945000  0.09355000  0.47567000  0.00000000
N        N    0.28055000  0.22567000  0.34355000  0.00000000
N        N    0.46945000  0.59355000  0.97567000  0.00000000
N        N    0.97567000  0.53055000  0.90645000  0.00000000
N        N    0.27433000  0.65645000  0.78055000  0.00000000
N        N    0.34355000  0.78055000  0.77433000  0.00000000
N        N    0.28055000  0.72567000  0.65645000  0.00000000
N        N    0.46945000  0.09355000  0.02433000  0.00000000
N        N    0.59355000  0.47567000  0.53055000  0.00000000
N        N    0.78055000  0.77433000  0.34355000  0.00000000
N        N    0.21945000  0.72567000  0.34355000  0.00000000
N        N    0.27433000  0.34355000  0.71945000  0.00000000
N        N    0.47567000  0.03055000  0.40645000  0.00000000
N        N    0.46945000  0.40645000  0.52433000  0.00000000
N        N    0.90645000  0.52433000  0.03055000  0.00000000
N        N    0.53055000  0.09355000  0.52433000  0.00000000
N        N    0.53055000  0.90645000  0.97567000  0.00000000
N        N    0.21945000  0.22567000  0.65645000  0.00000000
N        N    0.78055000  0.27433000  0.65645000  0.00000000
N        N    0.71945000  0.22567000  0.84355000  0.00000000
N        N    0.52433000  0.96945000  0.59355000  0.00000000
N        N    0.53055000  0.40645000  0.02433000  0.00000000
N        N    0.34355000  0.21945000  0.72567000  0.00000000
N        N    0.03055000  0.90645000  0.52433000  0.00000000
N        N    0.47567000  0.96945000  0.09355000  0.00000000
N        N    0.78055000  0.22567000  0.15645000  0.00000000
N        N    0.52433000  0.46945000  0.40645000  0.00000000
N        N    0.77433000  0.84355000  0.21945000  0.00000000
N        N    0.40645000  0.52433000  0.46945000  0.00000000
N        N    0.71945000  0.72567000  0.15645000  0.00000000
N        N    0.90645000  0.47567000  0.46945000  0.00000000
N        N    0.34355000  0.28055000  0.22567000  0.00000000
N        N    0.84355000  0.21945000  0.77433000  0.00000000
N        N    0.72567000  0.15645000  0.71945000  0.00000000
N        N    0.40645000  0.02433000  0.53055000  0.00000000
N        N    0.15645000  0.21945000  0.27433000  0.00000000
N        N    0.09355000  0.47567000  0.96945000  0.00000000
N        N    0.59355000  0.97567000  0.46945000  0.00000000
N        N    0.21945000  0.27433000  0.15645000  0.00000000
N        N    0.65645000  0.78055000  0.27433000  0.00000000
N        N    0.78055000  0.72567000  0.84355000  0.00000000
N        N    0.52433000  0.53055000  0.09355000  0.00000000
N        N    0.59355000  0.52433000  0.96945000  0.00000000
N        N    0.65645000  0.71945000  0.77433000  0.00000000
N        N    0.21945000  0.77433000  0.84355000  0.00000000
N        N    0.22567000  0.84355000  0.71945000  0.00000000
N        N    0.46945000  0.90645000  0.47567000  0.00000000
N        N    0.03055000  0.09355000  0.97567000  0.00000000
N        N    0.97567000  0.96945000  0.40645000  0.00000000
N        N    0.40645000  0.97567000  0.96945000  0.00000000
N        N    0.27433000  0.15645000  0.21945000  0.00000000
N        N    0.28055000  0.77433000  0.15645000  0.00000000
N        N    0.40645000  0.47567000  0.03055000  0.00000000
N        N    0.02433000  0.03055000  0.59355000  0.00000000
N        N    0.97567000  0.03055000  0.09355000  0.00000000
N        N    0.84355000  0.71945000  0.22567000  0.00000000
N        N    0.96945000  0.90645000  0.02433000  0.00000000
N        N    0.15645000  0.71945000  0.72567000  0.00000000
N        N    0.47567000  0.53055000  0.59355000  0.00000000
N        N    0.02433000  0.96945000  0.90645000  0.00000000
N        N    0.84355000  0.78055000  0.72567000  0.00000000
N        N    0.28055000  0.27433000  0.84355000  0.00000000
N        N    0.03055000  0.40645000  0.47567000  0.00000000
N        N    0.97567000  0.46945000  0.59355000  0.00000000
N        N    0.47567000  0.46945000  0.90645000  0.00000000
N        N    0.72567000  0.34355000  0.21945000  0.00000000
N        N    0.15645000  0.78055000  0.22567000  0.00000000
N        N    0.65645000  0.28055000  0.72567000  0.00000000
C        C    0.05945000  0.49971000  0.36774000  0.00000000
C        C    0.19055000  0.61774000  0.25029000  0.00000000
C        C    0.13226000  0.05945000  0.50029000  0.00000000
C        C    0.38226000  0.75029000  0.30945000  0.00000000
C        C    0.13226000  0.94055000  0.99971000  0.00000000
C        C    0.00029000  0.36774000  0.94055000  0.00000000
C        C    0.75029000  0.30945000  0.38226000  0.00000000
C        C    0.13226000  0.55945000  0.49971000  0.00000000
C        C    0.80945000  0.11774000  0.24971000  0.00000000
C        C    0.63226000  0.05945000  0.99971000  0.00000000
C        C    0.05945000  0.50029000  0.13226000  0.00000000
C        C    0.86774000  0.05945000  0.00029000  0.00000000
C        C    0.99971000  0.63226000  0.05945000  0.00000000
C        C    0.86774000  0.94055000  0.49971000  0.00000000
C        C    0.19055000  0.38226000  0.24971000  0.00000000
C        C    0.00029000  0.63226000  0.55945000  0.00000000
C        C    0.19055000  0.11774000  0.74971000  0.00000000
C        C    0.69055000  0.61774000  0.24971000  0.00000000
C        C    0.55945000  0.99971000  0.86774000  0.00000000
C        C    0.61774000  0.25029000  0.19055000  0.00000000
C        C    0.11774000  0.24971000  0.80945000  0.00000000
C        C    0.88226000  0.24971000  0.30945000  0.00000000
C        C    0.30945000  0.88226000  0.24971000  0.00000000
C        C    0.80945000  0.38226000  0.74971000  0.00000000
C        C    0.49971000  0.63226000  0.44055000  0.00000000
C        C    0.75029000  0.80945000  0.61774000  0.00000000
C        C    0.69055000  0.88226000  0.74971000  0.00000000
C        C    0.80945000  0.61774000  0.75029000  0.00000000
C        C    0.00029000  0.13226000  0.44055000  0.00000000
C        C    0.24971000  0.19055000  0.38226000  0.00000000
C        C    0.50029000  0.63226000  0.94055000  0.00000000
C        C    0.94055000  0.49971000  0.86774000  0.00000000
C        C    0.30945000  0.61774000  0.74971000  0.00000000
C        C    0.38226000  0.74971000  0.80945000  0.00000000
C        C    0.24971000  0.69055000  0.61774000  0.00000000
C        C    0.50029000  0.13226000  0.05945000  0.00000000
C        C    0.63226000  0.44055000  0.49971000  0.00000000
C        C    0.74971000  0.80945000  0.38226000  0.00000000
C        C    0.25029000  0.69055000  0.38226000  0.00000000
C        C    0.30945000  0.38226000  0.75029000  0.00000000
C        C    0.44055000  0.99971000  0.36774000  0.00000000
C        C    0.50029000  0.36774000  0.55945000  0.00000000
C        C    0.86774000  0.55945000  0.99971000  0.00000000
C        C    0.49971000  0.13226000  0.55945000  0.00000000
C        C    0.49971000  0.86774000  0.94055000  0.00000000
C        C    0.25029000  0.19055000  0.61774000  0.00000000
C        C    0.74971000  0.30945000  0.61774000  0.00000000
C        C    0.75029000  0.19055000  0.88226000  0.00000000
C        C    0.55945000  0.00029000  0.63226000  0.00000000
C        C    0.49971000  0.36774000  0.05945000  0.00000000
C        C    0.38226000  0.25029000  0.69055000  0.00000000
C        C    0.99971000  0.86774000  0.55945000  0.00000000
C        C    0.44055000  0.00029000  0.13226000  0.00000000
C        C    0.74971000  0.19055000  0.11774000  0.00000000
C        C    0.55945000  0.50029000  0.36774000  0.00000000
C        C    0.80945000  0.88226000  0.25029000  0.00000000
C        C    0.36774000  0.55945000  0.50029000  0.00000000
C        C    0.75029000  0.69055000  0.11774000  0.00000000
C        C    0.86774000  0.44055000  0.50029000  0.00000000
C        C    0.38226000  0.24971000  0.19055000  0.00000000
C        C    0.88226000  0.25029000  0.80945000  0.00000000
C        C    0.69055000  0.11774000  0.75029000  0.00000000
C        C    0.36774000  0.05945000  0.49971000  0.00000000
C        C    0.11774000  0.25029000  0.30945000  0.00000000
C        C    0.13226000  0.44055000  0.00029000  0.00000000
C        C    0.63226000  0.94055000  0.50029000  0.00000000
C        C    0.25029000  0.30945000  0.11774000  0.00000000
C        C    0.61774000  0.74971000  0.30945000  0.00000000
C        C    0.74971000  0.69055000  0.88226000  0.00000000
C        C    0.55945000  0.49971000  0.13226000  0.00000000
C        C    0.63226000  0.55945000  0.00029000  0.00000000
C        C    0.61774000  0.75029000  0.80945000  0.00000000
C        C    0.25029000  0.80945000  0.88226000  0.00000000
C        C    0.19055000  0.88226000  0.75029000  0.00000000
C        C    0.50029000  0.86774000  0.44055000  0.00000000
C        C    0.99971000  0.13226000  0.94055000  0.00000000
C        C    0.94055000  0.00029000  0.36774000  0.00000000
C        C    0.36774000  0.94055000  0.00029000  0.00000000
C        C    0.30945000  0.11774000  0.25029000  0.00000000
C        C    0.24971000  0.80945000  0.11774000  0.00000000
C        C    0.36774000  0.44055000  0.99971000  0.00000000
C        C    0.05945000  0.99971000  0.63226000  0.00000000
C        C    0.94055000  0.99971000  0.13226000  0.00000000
C        C    0.88226000  0.75029000  0.19055000  0.00000000
C        C    0.00029000  0.86774000  0.05945000  0.00000000
C        C    0.11774000  0.75029000  0.69055000  0.00000000
C        C    0.44055000  0.49971000  0.63226000  0.00000000
C        C    0.05945000  0.00029000  0.86774000  0.00000000
C        C    0.88226000  0.74971000  0.69055000  0.00000000
C        C    0.24971000  0.30945000  0.88226000  0.00000000
C        C    0.99971000  0.36774000  0.44055000  0.00000000
C        C    0.94055000  0.50029000  0.63226000  0.00000000
C        C    0.44055000  0.50029000  0.86774000  0.00000000
C        C    0.69055000  0.38226000  0.25029000  0.00000000
C        C    0.11774000  0.74971000  0.19055000  0.00000000
C        C    0.61774000  0.24971000  0.69055000  0.00000000
C        C    0.01639000  0.58652000  0.37966000  0.00000000
C        C    0.23361000  0.62966000  0.16348000  0.00000000
C        C    0.12034000  0.01639000  0.41348000  0.00000000
C        C    0.37034000  0.66348000  0.26639000  0.00000000
C        C    0.12034000  0.98361000  0.08652000  0.00000000
C        C    0.91348000  0.37966000  0.98361000  0.00000000
C        C    0.66348000  0.26639000  0.37034000  0.00000000
C        C    0.12034000  0.51639000  0.58652000  0.00000000
C        C    0.76639000  0.12966000  0.33652000  0.00000000
C        C    0.62034000  0.01639000  0.08652000  0.00000000
C        C    0.01639000  0.41348000  0.12034000  0.00000000
C        C    0.87966000  0.01639000  0.91348000  0.00000000
C        C    0.08652000  0.62034000  0.01639000  0.00000000
C        C    0.87966000  0.98361000  0.58652000  0.00000000
C        C    0.23361000  0.37034000  0.33652000  0.00000000
C        C    0.91348000  0.62034000  0.51639000  0.00000000
C        C    0.23361000  0.12966000  0.83652000  0.00000000
C        C    0.73361000  0.62966000  0.33652000  0.00000000
C        C    0.51639000  0.08652000  0.87966000  0.00000000
C        C    0.62966000  0.16348000  0.23361000  0.00000000
C        C    0.12966000  0.33652000  0.76639000  0.00000000
C        C    0.87034000  0.33652000  0.26639000  0.00000000
C        C    0.26639000  0.87034000  0.33652000  0.00000000
C        C    0.76639000  0.37034000  0.83652000  0.00000000
C        C    0.58652000  0.62034000  0.48361000  0.00000000
C        C    0.66348000  0.76639000  0.62966000  0.00000000
C        C    0.73361000  0.87034000  0.83652000  0.00000000
C        C    0.76639000  0.62966000  0.66348000  0.00000000
C        C    0.91348000  0.12034000  0.48361000  0.00000000
C        C    0.33652000  0.23361000  0.37034000  0.00000000
C        C    0.41348000  0.62034000  0.98361000  0.00000000
C        C    0.98361000  0.58652000  0.87966000  0.00000000
C        C    0.26639000  0.62966000  0.83652000  0.00000000
C        C    0.37034000  0.83652000  0.76639000  0.00000000
C        C    0.33652000  0.73361000  0.62966000  0.00000000
C        C    0.41348000  0.12034000  0.01639000  0.00000000
C        C    0.62034000  0.48361000  0.58652000  0.00000000
C        C    0.83652000  0.76639000  0.37034000  0.00000000
C        C    0.16348000  0.73361000  0.37034000  0.00000000
C        C    0.26639000  0.37034000  0.66348000  0.00000000
C        C    0.48361000  0.08652000  0.37966000  0.00000000
C        C    0.41348000  0.37966000  0.51639000  0.00000000
C        C    0.87966000  0.51639000  0.08652000  0.00000000
C        C    0.58652000  0.12034000  0.51639000  0.00000000
C        C    0.58652000  0.87966000  0.98361000  0.00000000
C        C    0.16348000  0.23361000  0.62966000  0.00000000
C        C    0.83652000  0.26639000  0.62966000  0.00000000
C        C    0.66348000  0.23361000  0.87034000  0.00000000
C        C    0.51639000  0.91348000  0.62034000  0.00000000
C        C    0.58652000  0.37966000  0.01639000  0.00000000
C        C    0.37034000  0.16348000  0.73361000  0.00000000
C        C    0.08652000  0.87966000  0.51639000  0.00000000
C        C    0.48361000  0.91348000  0.12034000  0.00000000
C        C    0.83652000  0.23361000  0.12966000  0.00000000
C        C    0.51639000  0.41348000  0.37966000  0.00000000
C        C    0.76639000  0.87034000  0.16348000  0.00000000
C        C    0.37966000  0.51639000  0.41348000  0.00000000
C        C    0.66348000  0.73361000  0.12966000  0.00000000
C        C    0.87966000  0.48361000  0.41348000  0.00000000
C        C    0.37034000  0.33652000  0.23361000  0.00000000
C        C    0.87034000  0.16348000  0.76639000  0.00000000
C        C    0.73361000  0.12966000  0.66348000  0.00000000
C        C    0.37966000  0.01639000  0.58652000  0.00000000
C        C    0.12966000  0.16348000  0.26639000  0.00000000
C        C    0.12034000  0.48361000  0.91348000  0.00000000
C        C    0.62034000  0.98361000  0.41348000  0.00000000
C        C    0.16348000  0.26639000  0.12966000  0.00000000
C        C    0.62966000  0.83652000  0.26639000  0.00000000
C        C    0.83652000  0.73361000  0.87034000  0.00000000
C        C    0.51639000  0.58652000  0.12034000  0.00000000
C        C    0.62034000  0.51639000  0.91348000  0.00000000
C        C    0.62966000  0.66348000  0.76639000  0.00000000
C        C    0.16348000  0.76639000  0.87034000  0.00000000
C        C    0.23361000  0.87034000  0.66348000  0.00000000
C        C    0.41348000  0.87966000  0.48361000  0.00000000
C        C    0.08652000  0.12034000  0.98361000  0.00000000
C        C    0.98361000  0.91348000  0.37966000  0.00000000
C        C    0.37966000  0.98361000  0.91348000  0.00000000
C        C    0.26639000  0.12966000  0.16348000  0.00000000
C        C    0.33652000  0.76639000  0.12966000  0.00000000
C        C    0.37966000  0.48361000  0.08652000  0.00000000
C        C    0.01639000  0.08652000  0.62034000  0.00000000
C        C    0.98361000  0.08652000  0.12034000  0.00000000
C        C    0.87034000  0.66348000  0.23361000  0.00000000
C        C    0.91348000  0.87966000  0.01639000  0.00000000
C        C    0.12966000  0.66348000  0.73361000  0.00000000
C        C    0.48361000  0.58652000  0.62034000  0.00000000
C        C    0.01639000  0.91348000  0.87966000  0.00000000
C        C    0.87034000  0.83652000  0.73361000  0.00000000
C        C    0.33652000  0.26639000  0.87034000  0.00000000
C        C    0.08652000  0.37966000  0.48361000  0.00000000
C        C    0.98361000  0.41348000  0.62034000  0.00000000
C        C    0.48361000  0.41348000  0.87966000  0.00000000
C        C    0.73361000  0.37034000  0.16348000  0.00000000
C        C    0.12966000  0.83652000  0.23361000  0.00000000
C        C    0.62966000  0.33652000  0.73361000  0.00000000
C        C    0.04685000  0.58718000  0.32606000  0.00000000
C        C    0.20315000  0.57606000  0.16282000  0.00000000
C        C    0.17394000  0.04685000  0.41282000  0.00000000
C        C    0.42394000  0.66282000  0.29685000  0.00000000
C        C    0.17394000  0.95315000  0.08718000  0.00000000
C        C    0.91282000  0.32606000  0.95315000  0.00000000
C        C    0.66282000  0.29685000  0.42394000  0.00000000
C        C    0.17394000  0.54685000  0.58718000  0.00000000
C        C    0.79685000  0.07606000  0.33718000  0.00000000
C        C    0.67394000  0.04685000  0.08718000  0.00000000
C        C    0.04685000  0.41282000  0.17394000  0.00000000
C        C    0.82606000  0.04685000  0.91282000  0.00000000
C        C    0.08718000  0.67394000  0.04685000  0.00000000
C        C    0.82606000  0.95315000  0.58718000  0.00000000
C        C    0.20315000  0.42394000  0.33718000  0.00000000
C        C    0.91282000  0.67394000  0.54685000  0.00000000
C        C    0.20315000  0.07606000  0.83718000  0.00000000
C        C    0.70315000  0.57606000  0.33718000  0.00000000
C        C    0.54685000  0.08718000  0.82606000  0.00000000
C        C    0.57606000  0.16282000  0.20315000  0.00000000
C        C    0.07606000  0.33718000  0.79685000  0.00000000
C        C    0.92394000  0.33718000  0.29685000  0.00000000
C        C    0.29685000  0.92394000  0.33718000  0.00000000
C        C    0.79685000  0.42394000  0.83718000  0.00000000
C        C    0.58718000  0.67394000  0.45315000  0.00000000
C        C    0.66282000  0.79685000  0.57606000  0.00000000
C        C    0.70315000  0.92394000  0.83718000  0.00000000
C        C    0.79685000  0.57606000  0.66282000  0.00000000
C        C    0.91282000  0.17394000  0.45315000  0.00000000
C        C    0.33718000  0.20315000  0.42394000  0.00000000
C        C    0.41282000  0.67394000  0.95315000  0.00000000
C        C    0.95315000  0.58718000  0.82606000  0.00000000
C        C    0.29685000  0.57606000  0.83718000  0.00000000
C        C    0.42394000  0.83718000  0.79685000  0.00000000
C        C    0.33718000  0.70315000  0.57606000  0.00000000
C        C    0.41282000  0.17394000  0.04685000  0.00000000
C        C    0.67394000  0.45315000  0.58718000  0.00000000
C        C    0.83718000  0.79685000  0.42394000  0.00000000
C        C    0.16282000  0.70315000  0.42394000  0.00000000
C        C    0.29685000  0.42394000  0.66282000  0.00000000
C        C    0.45315000  0.08718000  0.32606000  0.00000000
C        C    0.41282000  0.32606000  0.54685000  0.00000000
C        C    0.82606000  0.54685000  0.08718000  0.00000000
C        C    0.58718000  0.17394000  0.54685000  0.00000000
C        C    0.58718000  0.82606000  0.95315000  0.00000000
C        C    0.16282000  0.20315000  0.57606000  0.00000000
C        C    0.83718000  0.29685000  0.57606000  0.00000000
C        C    0.66282000  0.20315000  0.92394000  0.00000000
C        C    0.54685000  0.91282000  0.67394000  0.00000000
C        C    0.58718000  0.32606000  0.04685000  0.00000000
C        C    0.42394000  0.16282000  0.70315000  0.00000000
C        C    0.08718000  0.82606000  0.54685000  0.00000000
C        C    0.45315000  0.91282000  0.17394000  0.00000000
C        C    0.83718000  0.20315000  0.07606000  0.00000000
C        C    0.54685000  0.41282000  0.32606000  0.00000000
C        C    0.79685000  0.92394000  0.16282000  0.00000000
C        C    0.32606000  0.54685000  0.41282000  0.00000000
C        C    0.66282000  0.70315000  0.07606000  0.00000000
C        C    0.82606000  0.45315000  0.41282000  0.00000000
C        C    0.42394000  0.33718000  0.20315000  0.00000000
C        C    0.92394000  0.16282000  0.79685000  0.00000000
C        C    0.70315000  0.07606000  0.66282000  0.00000000
C        C    0.32606000  0.04685000  0.58718000  0.00000000
C        C    0.07606000  0.16282000  0.29685000  0.00000000
C        C    0.17394000  0.45315000  0.91282000  0.00000000
C        C    0.67394000  0.95315000  0.41282000  0.00000000
C        C    0.16282000  0.29685000  0.07606000  0.00000000
C        C    0.57606000  0.83718000  0.29685000  0.00000000
C        C    0.83718000  0.70315000  0.92394000  0.00000000
C        C    0.54685000  0.58718000  0.17394000  0.00000000
C        C    0.67394000  0.54685000  0.91282000  0.00000000
C        C    0.57606000  0.66282000  0.79685000  0.00000000
C        C    0.16282000  0.79685000  0.92394000  0.00000000
C        C    0.20315000  0.92394000  0.66282000  0.00000000
C        C    0.41282000  0.82606000  0.45315000  0.00000000
C        C    0.08718000  0.17394000  0.95315000  0.00000000
C        C    0.95315000  0.91282000  0.32606000  0.00000000
C        C    0.32606000  0.95315000  0.91282000  0.00000000
C        C    0.29685000  0.07606000  0.16282000  0.00000000
C        C    0.33718000  0.79685000  0.07606000  0.00000000
C        C    0.32606000  0.45315000  0.08718000  0.00000000
C        C    0.04685000  0.08718000  0.67394000  0.00000000
C        C    0.95315000  0.08718000  0.17394000  0.00000000
C        C    0.92394000  0.66282000  0.20315000  0.00000000
C        C    0.91282000  0.82606000  0.04685000  0.00000000
C        C    0.07606000  0.66282000  0.70315000  0.00000000
C        C    0.45315000  0.58718000  0.67394000  0.00000000
C        C    0.04685000  0.91282000  0.82606000  0.00000000
C        C    0.92394000  0.83718000  0.70315000  0.00000000
C        C    0.33718000  0.29685000  0.92394000  0.00000000
C        C    0.08718000  0.32606000  0.45315000  0.00000000
C        C    0.95315000  0.41282000  0.67394000  0.00000000
C        C    0.45315000  0.41282000  0.82606000  0.00000000
C        C    0.70315000  0.42394000  0.16282000  0.00000000
C        C    0.07606000  0.83718000  0.20315000  0.00000000
C        C    0.57606000  0.33718000  0.70315000  0.00000000
H        H    0.07180000  0.46050000  0.37260000  0.00000000
H        H    0.17820000  0.62260000  0.28950000  0.00000000
H        H    0.12740000  0.07180000  0.53950000  0.00000000
H        H    0.37740000  0.78950000  0.32180000  0.00000000
H        H    0.12740000  0.92820000  0.96050000  0.00000000
H        H    0.03950000  0.37260000  0.92820000  0.00000000
H        H    0.78950000  0.32180000  0.37740000  0.00000000
H        H    0.12740000  0.57180000  0.46050000  0.00000000
H        H    0.82180000  0.12260000  0.21050000  0.00000000
H        H    0.62740000  0.07180000  0.96050000  0.00000000
H        H    0.07180000  0.53950000  0.12740000  0.00000000
H        H    0.87260000  0.07180000  0.03950000  0.00000000
H        H    0.96050000  0.62740000  0.07180000  0.00000000
H        H    0.87260000  0.92820000  0.46050000  0.00000000
H        H    0.17820000  0.37740000  0.21050000  0.00000000
H        H    0.03950000  0.62740000  0.57180000  0.00000000
H        H    0.17820000  0.12260000  0.71050000  0.00000000
H        H    0.67820000  0.62260000  0.21050000  0.00000000
H        H    0.57180000  0.96050000  0.87260000  0.00000000
H        H    0.62260000  0.28950000  0.17820000  0.00000000
H        H    0.12260000  0.21050000  0.82180000  0.00000000
H        H    0.87740000  0.21050000  0.32180000  0.00000000
H        H    0.32180000  0.87740000  0.21050000  0.00000000
H        H    0.82180000  0.37740000  0.71050000  0.00000000
H        H    0.46050000  0.62740000  0.42820000  0.00000000
H        H    0.78950000  0.82180000  0.62260000  0.00000000
H        H    0.67820000  0.87740000  0.71050000  0.00000000
H        H    0.82180000  0.62260000  0.78950000  0.00000000
H        H    0.03950000  0.12740000  0.42820000  0.00000000
H        H    0.21050000  0.17820000  0.37740000  0.00000000
H        H    0.53950000  0.62740000  0.92820000  0.00000000
H        H    0.92820000  0.46050000  0.87260000  0.00000000
H        H    0.32180000  0.62260000  0.71050000  0.00000000
H        H    0.37740000  0.71050000  0.82180000  0.00000000
H        H    0.21050000  0.67820000  0.62260000  0.00000000
H        H    0.53950000  0.12740000  0.07180000  0.00000000
H        H    0.62740000  0.42820000  0.46050000  0.00000000
H        H    0.71050000  0.82180000  0.37740000  0.00000000
H        H    0.28950000  0.67820000  0.37740000  0.00000000
H        H    0.32180000  0.37740000  0.78950000  0.00000000
H        H    0.42820000  0.96050000  0.37260000  0.00000000
H        H    0.53950000  0.37260000  0.57180000  0.00000000
H        H    0.87260000  0.57180000  0.96050000  0.00000000
H        H    0.46050000  0.12740000  0.57180000  0.00000000
H        H    0.46050000  0.87260000  0.92820000  0.00000000
H        H    0.28950000  0.17820000  0.62260000  0.00000000
H        H    0.71050000  0.32180000  0.62260000  0.00000000
H        H    0.78950000  0.17820000  0.87740000  0.00000000
H        H    0.57180000  0.03950000  0.62740000  0.00000000
H        H    0.46050000  0.37260000  0.07180000  0.00000000
H        H    0.37740000  0.28950000  0.67820000  0.00000000
H        H    0.96050000  0.87260000  0.57180000  0.00000000
H        H    0.42820000  0.03950000  0.12740000  0.00000000
H        H    0.71050000  0.17820000  0.12260000  0.00000000
H        H    0.57180000  0.53950000  0.37260000  0.00000000
H        H    0.82180000  0.87740000  0.28950000  0.00000000
H        H    0.37260000  0.57180000  0.53950000  0.00000000
H        H    0.78950000  0.67820000  0.12260000  0.00000000
H        H    0.87260000  0.42820000  0.53950000  0.00000000
H        H    0.37740000  0.21050000  0.17820000  0.00000000
H        H    0.87740000  0.28950000  0.82180000  0.00000000
H        H    0.67820000  0.12260000  0.78950000  0.00000000
H        H    0.37260000  0.07180000  0.46050000  0.00000000
H        H    0.12260000  0.28950000  0.32180000  0.00000000
H        H    0.12740000  0.42820000  0.03950000  0.00000000
H        H    0.62740000  0.92820000  0.53950000  0.00000000
H        H    0.28950000  0.32180000  0.12260000  0.00000000
H        H    0.62260000  0.71050000  0.32180000  0.00000000
H        H    0.71050000  0.67820000  0.87740000  0.00000000
H        H    0.57180000  0.46050000  0.12740000  0.00000000
H        H    0.62740000  0.57180000  0.03950000  0.00000000
H        H    0.62260000  0.78950000  0.82180000  0.00000000
H        H    0.28950000  0.82180000  0.87740000  0.00000000
H        H    0.17820000  0.87740000  0.78950000  0.00000000
H        H    0.53950000  0.87260000  0.42820000  0.00000000
H        H    0.96050000  0.12740000  0.92820000  0.00000000
H        H    0.92820000  0.03950000  0.37260000  0.00000000
H        H    0.37260000  0.92820000  0.03950000  0.00000000
H        H    0.32180000  0.12260000  0.28950000  0.00000000
H        H    0.21050000  0.82180000  0.12260000  0.00000000
H        H    0.37260000  0.42820000  0.96050000  0.00000000
H        H    0.07180000  0.96050000  0.62740000  0.00000000
H        H    0.92820000  0.96050000  0.12740000  0.00000000
H        H    0.87740000  0.78950000  0.17820000  0.00000000
H        H    0.03950000  0.87260000  0.07180000  0.00000000
H        H    0.12260000  0.78950000  0.67820000  0.00000000
H        H    0.42820000  0.46050000  0.62740000  0.00000000
H        H    0.07180000  0.03950000  0.87260000  0.00000000
H        H    0.87740000  0.71050000  0.67820000  0.00000000
H        H    0.21050000  0.32180000  0.87740000  0.00000000
H        H    0.96050000  0.37260000  0.42820000  0.00000000
H        H    0.92820000  0.53950000  0.62740000  0.00000000
H        H    0.42820000  0.53950000  0.87260000  0.00000000
H        H    0.67820000  0.37740000  0.28950000  0.00000000
H        H    0.12260000  0.71050000  0.17820000  0.00000000
H        H    0.62260000  0.21050000  0.67820000  0.00000000
H        H    0.99560000  0.61580000  0.40000000  0.00000000
H        H    0.25440000  0.65000000  0.13420000  0.00000000
H        H    0.10000000  0.99560000  0.38420000  0.00000000
H        H    0.35000000  0.63420000  0.24560000  0.00000000
H        H    0.10000000  0.00440000  0.11580000  0.00000000
H        H    0.88420000  0.40000000  0.00440000  0.00000000
H        H    0.63420000  0.24560000  0.35000000  0.00000000
H        H    0.10000000  0.49560000  0.61580000  0.00000000
H        H    0.74560000  0.15000000  0.36580000  0.00000000
H        H    0.60000000  0.99560000  0.11580000  0.00000000
H        H    0.99560000  0.38420000  0.10000000  0.00000000
H        H    0.90000000  0.99560000  0.88420000  0.00000000
H        H    0.11580000  0.60000000  0.99560000  0.00000000
H        H    0.90000000  0.00440000  0.61580000  0.00000000
H        H    0.25440000  0.35000000  0.36580000  0.00000000
H        H    0.88420000  0.60000000  0.49560000  0.00000000
H        H    0.25440000  0.15000000  0.86580000  0.00000000
H        H    0.75440000  0.65000000  0.36580000  0.00000000
H        H    0.49560000  0.11580000  0.90000000  0.00000000
H        H    0.65000000  0.13420000  0.25440000  0.00000000
H        H    0.15000000  0.36580000  0.74560000  0.00000000
H        H    0.85000000  0.36580000  0.24560000  0.00000000
H        H    0.24560000  0.85000000  0.36580000  0.00000000
H        H    0.74560000  0.35000000  0.86580000  0.00000000
H        H    0.61580000  0.60000000  0.50440000  0.00000000
H        H    0.63420000  0.74560000  0.65000000  0.00000000
H        H    0.75440000  0.85000000  0.86580000  0.00000000
H        H    0.74560000  0.65000000  0.63420000  0.00000000
H        H    0.88420000  0.10000000  0.50440000  0.00000000
H        H    0.36580000  0.25440000  0.35000000  0.00000000
H        H    0.38420000  0.60000000  0.00440000  0.00000000
H        H    0.00440000  0.61580000  0.90000000  0.00000000
H        H    0.24560000  0.65000000  0.86580000  0.00000000
H        H    0.35000000  0.86580000  0.74560000  0.00000000
H        H    0.36580000  0.75440000  0.65000000  0.00000000
H        H    0.38420000  0.10000000  0.99560000  0.00000000
H        H    0.60000000  0.50440000  0.61580000  0.00000000
H        H    0.86580000  0.74560000  0.35000000  0.00000000
H        H    0.13420000  0.75440000  0.35000000  0.00000000
H        H    0.24560000  0.35000000  0.63420000  0.00000000
H        H    0.50440000  0.11580000  0.40000000  0.00000000
H        H    0.38420000  0.40000000  0.49560000  0.00000000
H        H    0.90000000  0.49560000  0.11580000  0.00000000
H        H    0.61580000  0.10000000  0.49560000  0.00000000
H        H    0.61580000  0.90000000  0.00440000  0.00000000
H        H    0.13420000  0.25440000  0.65000000  0.00000000
H        H    0.86580000  0.24560000  0.65000000  0.00000000
H        H    0.63420000  0.25440000  0.85000000  0.00000000
H        H    0.49560000  0.88420000  0.60000000  0.00000000
H        H    0.61580000  0.40000000  0.99560000  0.00000000
H        H    0.35000000  0.13420000  0.75440000  0.00000000
H        H    0.11580000  0.90000000  0.49560000  0.00000000
H        H    0.50440000  0.88420000  0.10000000  0.00000000
H        H    0.86580000  0.25440000  0.15000000  0.00000000
H        H    0.49560000  0.38420000  0.40000000  0.00000000
H        H    0.74560000  0.85000000  0.13420000  0.00000000
H        H    0.40000000  0.49560000  0.38420000  0.00000000
H        H    0.63420000  0.75440000  0.15000000  0.00000000
H        H    0.90000000  0.50440000  0.38420000  0.00000000
H        H    0.35000000  0.36580000  0.25440000  0.00000000
H        H    0.85000000  0.13420000  0.74560000  0.00000000
H        H    0.75440000  0.15000000  0.63420000  0.00000000
H        H    0.40000000  0.99560000  0.61580000  0.00000000
H        H    0.15000000  0.13420000  0.24560000  0.00000000
H        H    0.10000000  0.50440000  0.88420000  0.00000000
H        H    0.60000000  0.00440000  0.38420000  0.00000000
H        H    0.13420000  0.24560000  0.15000000  0.00000000
H        H    0.65000000  0.86580000  0.24560000  0.00000000
H        H    0.86580000  0.75440000  0.85000000  0.00000000
H        H    0.49560000  0.61580000  0.10000000  0.00000000
H        H    0.60000000  0.49560000  0.88420000  0.00000000
H        H    0.65000000  0.63420000  0.74560000  0.00000000
H        H    0.13420000  0.74560000  0.85000000  0.00000000
H        H    0.25440000  0.85000000  0.63420000  0.00000000
H        H    0.38420000  0.90000000  0.50440000  0.00000000
H        H    0.11580000  0.10000000  0.00440000  0.00000000
H        H    0.00440000  0.88420000  0.40000000  0.00000000
H        H    0.40000000  0.00440000  0.88420000  0.00000000
H        H    0.24560000  0.15000000  0.13420000  0.00000000
H        H    0.36580000  0.74560000  0.15000000  0.00000000
H        H    0.40000000  0.50440000  0.11580000  0.00000000
H        H    0.99560000  0.11580000  0.60000000  0.00000000
H        H    0.00440000  0.11580000  0.10000000  0.00000000
H        H    0.85000000  0.63420000  0.25440000  0.00000000
H        H    0.88420000  0.90000000  0.99560000  0.00000000
H        H    0.15000000  0.63420000  0.75440000  0.00000000
H        H    0.50440000  0.61580000  0.60000000  0.00000000
H        H    0.99560000  0.88420000  0.90000000  0.00000000
H        H    0.85000000  0.86580000  0.75440000  0.00000000
H        H    0.36580000  0.24560000  0.85000000  0.00000000
H        H    0.11580000  0.40000000  0.50440000  0.00000000
H        H    0.00440000  0.38420000  0.60000000  0.00000000
H        H    0.50440000  0.38420000  0.90000000  0.00000000
H        H    0.75440000  0.35000000  0.13420000  0.00000000
H        H    0.15000000  0.86580000  0.25440000  0.00000000
H        H    0.65000000  0.36580000  0.75440000  0.00000000
H        H    0.05180000  0.61770000  0.29860000  0.00000000
H        H    0.19820000  0.54860000  0.13230000  0.00000000
H        H    0.20140000  0.05180000  0.38230000  0.00000000
H        H    0.45140000  0.63230000  0.30180000  0.00000000
H        H    0.20140000  0.94820000  0.11770000  0.00000000
H        H    0.88230000  0.29860000  0.94820000  0.00000000
H        H    0.63230000  0.30180000  0.45140000  0.00000000
H        H    0.20140000  0.55180000  0.61770000  0.00000000
H        H    0.80180000  0.04860000  0.36770000  0.00000000
H        H    0.70140000  0.05180000  0.11770000  0.00000000
H        H    0.05180000  0.38230000  0.20140000  0.00000000
H        H    0.79860000  0.05180000  0.88230000  0.00000000
H        H    0.11770000  0.70140000  0.05180000  0.00000000
H        H    0.79860000  0.94820000  0.61770000  0.00000000
H        H    0.19820000  0.45140000  0.36770000  0.00000000
H        H    0.88230000  0.70140000  0.55180000  0.00000000
H        H    0.19820000  0.04860000  0.86770000  0.00000000
H        H    0.69820000  0.54860000  0.36770000  0.00000000
H        H    0.55180000  0.11770000  0.79860000  0.00000000
H        H    0.54860000  0.13230000  0.19820000  0.00000000
H        H    0.04860000  0.36770000  0.80180000  0.00000000
H        H    0.95140000  0.36770000  0.30180000  0.00000000
H        H    0.30180000  0.95140000  0.36770000  0.00000000
H        H    0.80180000  0.45140000  0.86770000  0.00000000
H        H    0.61770000  0.70140000  0.44820000  0.00000000
H        H    0.63230000  0.80180000  0.54860000  0.00000000
H        H    0.69820000  0.95140000  0.86770000  0.00000000
H        H    0.80180000  0.54860000  0.63230000  0.00000000
H        H    0.88230000  0.20140000  0.44820000  0.00000000
H        H    0.36770000  0.19820000  0.45140000  0.00000000
H        H    0.38230000  0.70140000  0.94820000  0.00000000
H        H    0.94820000  0.61770000  0.79860000  0.00000000
H        H    0.30180000  0.54860000  0.86770000  0.00000000
H        H    0.45140000  0.86770000  0.80180000  0.00000000
H        H    0.36770000  0.69820000  0.54860000  0.00000000
H        H    0.38230000  0.20140000  0.05180000  0.00000000
H        H    0.70140000  0.44820000  0.61770000  0.00000000
H        H    0.86770000  0.80180000  0.45140000  0.00000000
H        H    0.13230000  0.69820000  0.45140000  0.00000000
H        H    0.30180000  0.45140000  0.63230000  0.00000000
H        H    0.44820000  0.11770000  0.29860000  0.00000000
H        H    0.38230000  0.29860000  0.55180000  0.00000000
H        H    0.79860000  0.55180000  0.11770000  0.00000000
H        H    0.61770000  0.20140000  0.55180000  0.00000000
H        H    0.61770000  0.79860000  0.94820000  0.00000000
H        H    0.13230000  0.19820000  0.54860000  0.00000000
H        H    0.86770000  0.30180000  0.54860000  0.00000000
H        H    0.63230000  0.19820000  0.95140000  0.00000000
H        H    0.55180000  0.88230000  0.70140000  0.00000000
H        H    0.61770000  0.29860000  0.05180000  0.00000000
H        H    0.45140000  0.13230000  0.69820000  0.00000000
H        H    0.11770000  0.79860000  0.55180000  0.00000000
H        H    0.44820000  0.88230000  0.20140000  0.00000000
H        H    0.86770000  0.19820000  0.04860000  0.00000000
H        H    0.55180000  0.38230000  0.29860000  0.00000000
H        H    0.80180000  0.95140000  0.13230000  0.00000000
H        H    0.29860000  0.55180000  0.38230000  0.00000000
H        H    0.63230000  0.69820000  0.04860000  0.00000000
H        H    0.79860000  0.44820000  0.38230000  0.00000000
H        H    0.45140000  0.36770000  0.19820000  0.00000000
H        H    0.95140000  0.13230000  0.80180000  0.00000000
H        H    0.69820000  0.04860000  0.63230000  0.00000000
H        H    0.29860000  0.05180000  0.61770000  0.00000000
H        H    0.04860000  0.13230000  0.30180000  0.00000000
H        H    0.20140000  0.44820000  0.88230000  0.00000000
H        H    0.70140000  0.94820000  0.38230000  0.00000000
H        H    0.13230000  0.30180000  0.04860000  0.00000000
H        H    0.54860000  0.86770000  0.30180000  0.00000000
H        H    0.86770000  0.69820000  0.95140000  0.00000000
H        H    0.55180000  0.61770000  0.20140000  0.00000000
H        H    0.70140000  0.55180000  0.88230000  0.00000000
H        H    0.54860000  0.63230000  0.80180000  0.00000000
H        H    0.13230000  0.80180000  0.95140000  0.00000000
H        H    0.19820000  0.95140000  0.63230000  0.00000000
H        H    0.38230000  0.79860000  0.44820000  0.00000000
H        H    0.11770000  0.20140000  0.94820000  0.00000000
H        H    0.94820000  0.88230000  0.29860000  0.00000000
H        H    0.29860000  0.94820000  0.88230000  0.00000000
H        H    0.30180000  0.04860000  0.13230000  0.00000000
H        H    0.36770000  0.80180000  0.04860000  0.00000000
H        H    0.29860000  0.44820000  0.11770000  0.00000000
H        H    0.05180000  0.11770000  0.70140000  0.00000000
H        H    0.94820000  0.11770000  0.20140000  0.00000000
H        H    0.95140000  0.63230000  0.19820000  0.00000000
H        H    0.88230000  0.79860000  0.05180000  0.00000000
H        H    0.04860000  0.63230000  0.69820000  0.00000000
H        H    0.44820000  0.61770000  0.70140000  0.00000000
H        H    0.05180000  0.88230000  0.79860000  0.00000000
H        H    0.95140000  0.86770000  0.69820000  0.00000000
H        H    0.36770000  0.30180000  0.95140000  0.00000000
H        H    0.11770000  0.29860000  0.44820000  0.00000000
H        H    0.94820000  0.38230000  0.70140000  0.00000000
H        H    0.44820000  0.38230000  0.79860000  0.00000000
H        H    0.69820000  0.45140000  0.13230000  0.00000000
H        H    0.04860000  0.86770000  0.19820000  0.00000000
H        H    0.54860000  0.36770000  0.69820000  0.00000000
