data_ZIF-93

_cell_length_a  28.35650000
_cell_length_b  28.35650000
_cell_length_c  28.35650000
_cell_angle_alpha  90.00000000
_cell_angle_beta  90.00000000
_cell_angle_gamma  90.00000000


_symmetry_space_group_name_Hall ' P 1'
_symmetry_space_group_name_H-M  'P 1'
_symmetry_Int_Tables_number     1

loop_
_atom_site_label
_atom_site_type_symbol
_atom_site_fract_x
_atom_site_fract_y
_atom_site_fract_z
_atom_site_charge
O        O    0.92060000  0.60720000  0.45770000  0.00000000
O        O    0.42060000  0.89280000  0.04230000  0.00000000
O        O    0.95770000  0.57940000  0.89280000  0.00000000
O        O    0.60720000  0.92060000  0.54230000  0.00000000
O        O    0.95770000  0.10720000  0.57940000  0.00000000
O        O    0.45770000  0.60720000  0.07940000  0.00000000
O        O    0.54230000  0.07940000  0.60720000  0.00000000
O        O    0.57940000  0.10720000  0.04230000  0.00000000
O        O    0.54230000  0.39280000  0.07940000  0.00000000
O        O    0.95770000  0.89280000  0.42060000  0.00000000
O        O    0.39280000  0.07940000  0.54230000  0.00000000
O        O    0.89280000  0.04230000  0.42060000  0.00000000
O        O    0.89280000  0.42060000  0.95770000  0.00000000
O        O    0.39280000  0.54230000  0.92060000  0.00000000
O        O    0.04230000  0.42060000  0.89280000  0.00000000
O        O    0.39280000  0.92060000  0.45770000  0.00000000
O        O    0.07940000  0.54230000  0.39280000  0.00000000
O        O    0.57940000  0.95770000  0.10720000  0.00000000
O        O    0.89280000  0.57940000  0.04230000  0.00000000
O        O    0.57940000  0.89280000  0.95770000  0.00000000
O        O    0.42060000  0.95770000  0.89280000  0.00000000
O        O    0.10720000  0.57940000  0.95770000  0.00000000
O        O    0.45770000  0.39280000  0.92060000  0.00000000
O        O    0.92060000  0.54230000  0.60720000  0.00000000
O        O    0.89280000  0.95770000  0.57940000  0.00000000
O        O    0.07940000  0.60720000  0.54230000  0.00000000
O        O    0.57940000  0.04230000  0.89280000  0.00000000
O        O    0.10720000  0.95770000  0.42060000  0.00000000
O        O    0.07940000  0.39280000  0.45770000  0.00000000
O        O    0.07940000  0.45770000  0.60720000  0.00000000
O        O    0.42060000  0.04230000  0.10720000  0.00000000
O        O    0.10720000  0.04230000  0.57940000  0.00000000
O        O    0.60720000  0.45770000  0.92060000  0.00000000
O        O    0.45770000  0.92060000  0.60720000  0.00000000
O        O    0.04230000  0.10720000  0.42060000  0.00000000
O        O    0.10720000  0.42060000  0.04230000  0.00000000
O        O    0.92060000  0.39280000  0.54230000  0.00000000
O        O    0.60720000  0.54230000  0.07940000  0.00000000
O        O    0.54230000  0.60720000  0.92060000  0.00000000
O        O    0.42060000  0.10720000  0.95770000  0.00000000
O        O    0.04230000  0.89280000  0.57940000  0.00000000
O        O    0.54230000  0.92060000  0.39280000  0.00000000
O        O    0.92060000  0.45770000  0.39280000  0.00000000
O        O    0.39280000  0.45770000  0.07940000  0.00000000
O        O    0.95770000  0.42060000  0.10720000  0.00000000
O        O    0.04230000  0.57940000  0.10720000  0.00000000
O        O    0.45770000  0.07940000  0.39280000  0.00000000
O        O    0.60720000  0.07940000  0.45770000  0.00000000
O        O    0.78160000  0.91440000  0.30010000  0.00000000
O        O    0.28160000  0.58560000  0.19990000  0.00000000
O        O    0.80010000  0.71840000  0.58560000  0.00000000
O        O    0.91440000  0.78160000  0.69990000  0.00000000
O        O    0.80010000  0.41440000  0.71840000  0.00000000
O        O    0.30010000  0.91440000  0.21840000  0.00000000
O        O    0.69990000  0.21840000  0.91440000  0.00000000
O        O    0.71840000  0.41440000  0.19990000  0.00000000
O        O    0.69990000  0.08560000  0.21840000  0.00000000
O        O    0.80010000  0.58560000  0.28160000  0.00000000
O        O    0.08560000  0.21840000  0.69990000  0.00000000
O        O    0.58560000  0.19990000  0.28160000  0.00000000
O        O    0.58560000  0.28160000  0.80010000  0.00000000
O        O    0.08560000  0.69990000  0.78160000  0.00000000
O        O    0.19990000  0.28160000  0.58560000  0.00000000
O        O    0.08560000  0.78160000  0.30010000  0.00000000
O        O    0.21840000  0.69990000  0.08560000  0.00000000
O        O    0.71840000  0.80010000  0.41440000  0.00000000
O        O    0.58560000  0.71840000  0.19990000  0.00000000
O        O    0.71840000  0.58560000  0.80010000  0.00000000
O        O    0.28160000  0.80010000  0.58560000  0.00000000
O        O    0.41440000  0.71840000  0.80010000  0.00000000
O        O    0.30010000  0.08560000  0.78160000  0.00000000
O        O    0.78160000  0.69990000  0.91440000  0.00000000
O        O    0.58560000  0.80010000  0.71840000  0.00000000
O        O    0.21840000  0.91440000  0.69990000  0.00000000
O        O    0.71840000  0.19990000  0.58560000  0.00000000
O        O    0.41440000  0.80010000  0.28160000  0.00000000
O        O    0.21840000  0.08560000  0.30010000  0.00000000
O        O    0.21840000  0.30010000  0.91440000  0.00000000
O        O    0.28160000  0.19990000  0.41440000  0.00000000
O        O    0.41440000  0.19990000  0.71840000  0.00000000
O        O    0.91440000  0.30010000  0.78160000  0.00000000
O        O    0.30010000  0.78160000  0.91440000  0.00000000
O        O    0.19990000  0.41440000  0.28160000  0.00000000
O        O    0.41440000  0.28160000  0.19990000  0.00000000
O        O    0.78160000  0.08560000  0.69990000  0.00000000
O        O    0.91440000  0.69990000  0.21840000  0.00000000
O        O    0.69990000  0.91440000  0.78160000  0.00000000
O        O    0.28160000  0.41440000  0.80010000  0.00000000
O        O    0.19990000  0.58560000  0.71840000  0.00000000
O        O    0.69990000  0.78160000  0.08560000  0.00000000
O        O    0.78160000  0.30010000  0.08560000  0.00000000
O        O    0.08560000  0.30010000  0.21840000  0.00000000
O        O    0.80010000  0.28160000  0.41440000  0.00000000
O        O    0.19990000  0.71840000  0.41440000  0.00000000
O        O    0.30010000  0.21840000  0.08560000  0.00000000
O        O    0.91440000  0.21840000  0.30010000  0.00000000
C        C    0.88340000  0.75420000  0.50100000  0.00000000
C        C    0.38340000  0.74580000  0.99900000  0.00000000
C        C    0.00100000  0.61660000  0.74580000  0.00000000
C        C    0.75420000  0.88340000  0.49900000  0.00000000
C        C    0.00100000  0.25420000  0.61660000  0.00000000
C        C    0.50100000  0.75420000  0.11660000  0.00000000
C        C    0.49900000  0.11660000  0.75420000  0.00000000
C        C    0.61660000  0.25420000  0.99900000  0.00000000
C        C    0.49900000  0.24580000  0.11660000  0.00000000
C        C    0.00100000  0.74580000  0.38340000  0.00000000
C        C    0.24580000  0.11660000  0.49900000  0.00000000
C        C    0.74580000  0.99900000  0.38340000  0.00000000
C        C    0.74580000  0.38340000  0.00100000  0.00000000
C        C    0.24580000  0.49900000  0.88340000  0.00000000
C        C    0.99900000  0.38340000  0.74580000  0.00000000
C        C    0.24580000  0.88340000  0.50100000  0.00000000
C        C    0.11660000  0.49900000  0.24580000  0.00000000
C        C    0.61660000  0.00100000  0.25420000  0.00000000
C        C    0.74580000  0.61660000  0.99900000  0.00000000
C        C    0.61660000  0.74580000  0.00100000  0.00000000
C        C    0.38340000  0.00100000  0.74580000  0.00000000
C        C    0.25420000  0.61660000  0.00100000  0.00000000
C        C    0.50100000  0.24580000  0.88340000  0.00000000
C        C    0.88340000  0.49900000  0.75420000  0.00000000
C        C    0.74580000  0.00100000  0.61660000  0.00000000
C        C    0.11660000  0.75420000  0.49900000  0.00000000
C        C    0.61660000  0.99900000  0.74580000  0.00000000
C        C    0.25420000  0.00100000  0.38340000  0.00000000
C        C    0.11660000  0.24580000  0.50100000  0.00000000
C        C    0.11660000  0.50100000  0.75420000  0.00000000
C        C    0.38340000  0.99900000  0.25420000  0.00000000
C        C    0.25420000  0.99900000  0.61660000  0.00000000
C        C    0.75420000  0.50100000  0.88340000  0.00000000
C        C    0.50100000  0.88340000  0.75420000  0.00000000
C        C    0.99900000  0.25420000  0.38340000  0.00000000
C        C    0.25420000  0.38340000  0.99900000  0.00000000
C        C    0.88340000  0.24580000  0.49900000  0.00000000
C        C    0.75420000  0.49900000  0.11660000  0.00000000
C        C    0.49900000  0.75420000  0.88340000  0.00000000
C        C    0.38340000  0.25420000  0.00100000  0.00000000
C        C    0.99900000  0.74580000  0.61660000  0.00000000
C        C    0.49900000  0.88340000  0.24580000  0.00000000
C        C    0.88340000  0.50100000  0.24580000  0.00000000
C        C    0.24580000  0.50100000  0.11660000  0.00000000
C        C    0.00100000  0.38340000  0.25420000  0.00000000
C        C    0.99900000  0.61660000  0.25420000  0.00000000
C        C    0.50100000  0.11660000  0.24580000  0.00000000
C        C    0.75420000  0.11660000  0.50100000  0.00000000
C        C    0.90490000  0.68600000  0.47710000  0.00000000
C        C    0.40490000  0.81400000  0.02290000  0.00000000
C        C    0.97710000  0.59510000  0.81400000  0.00000000
C        C    0.68600000  0.90490000  0.52290000  0.00000000
C        C    0.97710000  0.18600000  0.59510000  0.00000000
C        C    0.47710000  0.68600000  0.09510000  0.00000000
C        C    0.52290000  0.09510000  0.68600000  0.00000000
C        C    0.59510000  0.18600000  0.02290000  0.00000000
C        C    0.52290000  0.31400000  0.09510000  0.00000000
C        C    0.97710000  0.81400000  0.40490000  0.00000000
C        C    0.31400000  0.09510000  0.52290000  0.00000000
C        C    0.81400000  0.02290000  0.40490000  0.00000000
C        C    0.81400000  0.40490000  0.97710000  0.00000000
C        C    0.31400000  0.52290000  0.90490000  0.00000000
C        C    0.02290000  0.40490000  0.81400000  0.00000000
C        C    0.31400000  0.90490000  0.47710000  0.00000000
C        C    0.09510000  0.52290000  0.31400000  0.00000000
C        C    0.59510000  0.97710000  0.18600000  0.00000000
C        C    0.81400000  0.59510000  0.02290000  0.00000000
C        C    0.59510000  0.81400000  0.97710000  0.00000000
C        C    0.40490000  0.97710000  0.81400000  0.00000000
C        C    0.18600000  0.59510000  0.97710000  0.00000000
C        C    0.47710000  0.31400000  0.90490000  0.00000000
C        C    0.90490000  0.52290000  0.68600000  0.00000000
C        C    0.81400000  0.97710000  0.59510000  0.00000000
C        C    0.09510000  0.68600000  0.52290000  0.00000000
C        C    0.59510000  0.02290000  0.81400000  0.00000000
C        C    0.18600000  0.97710000  0.40490000  0.00000000
C        C    0.09510000  0.31400000  0.47710000  0.00000000
C        C    0.09510000  0.47710000  0.68600000  0.00000000
C        C    0.40490000  0.02290000  0.18600000  0.00000000
C        C    0.18600000  0.02290000  0.59510000  0.00000000
C        C    0.68600000  0.47710000  0.90490000  0.00000000
C        C    0.47710000  0.90490000  0.68600000  0.00000000
C        C    0.02290000  0.18600000  0.40490000  0.00000000
C        C    0.18600000  0.40490000  0.02290000  0.00000000
C        C    0.90490000  0.31400000  0.52290000  0.00000000
C        C    0.68600000  0.52290000  0.09510000  0.00000000
C        C    0.52290000  0.68600000  0.90490000  0.00000000
C        C    0.40490000  0.18600000  0.97710000  0.00000000
C        C    0.02290000  0.81400000  0.59510000  0.00000000
C        C    0.52290000  0.90490000  0.31400000  0.00000000
C        C    0.90490000  0.47710000  0.31400000  0.00000000
C        C    0.31400000  0.47710000  0.09510000  0.00000000
C        C    0.97710000  0.40490000  0.18600000  0.00000000
C        C    0.02290000  0.59510000  0.18600000  0.00000000
C        C    0.47710000  0.09510000  0.31400000  0.00000000
C        C    0.68600000  0.09510000  0.47710000  0.00000000
C        C    0.92320000  0.64850000  0.44630000  0.00000000
C        C    0.42320000  0.85150000  0.05370000  0.00000000
C        C    0.94630000  0.57680000  0.85150000  0.00000000
C        C    0.64850000  0.92320000  0.55370000  0.00000000
C        C    0.94630000  0.14850000  0.57680000  0.00000000
C        C    0.44630000  0.64850000  0.07680000  0.00000000
C        C    0.55370000  0.07680000  0.64850000  0.00000000
C        C    0.57680000  0.14850000  0.05370000  0.00000000
C        C    0.55370000  0.35150000  0.07680000  0.00000000
C        C    0.94630000  0.85150000  0.42320000  0.00000000
C        C    0.35150000  0.07680000  0.55370000  0.00000000
C        C    0.85150000  0.05370000  0.42320000  0.00000000
C        C    0.85150000  0.42320000  0.94630000  0.00000000
C        C    0.35150000  0.55370000  0.92320000  0.00000000
C        C    0.05370000  0.42320000  0.85150000  0.00000000
C        C    0.35150000  0.92320000  0.44630000  0.00000000
C        C    0.07680000  0.55370000  0.35150000  0.00000000
C        C    0.57680000  0.94630000  0.14850000  0.00000000
C        C    0.85150000  0.57680000  0.05370000  0.00000000
C        C    0.57680000  0.85150000  0.94630000  0.00000000
C        C    0.42320000  0.94630000  0.85150000  0.00000000
C        C    0.14850000  0.57680000  0.94630000  0.00000000
C        C    0.44630000  0.35150000  0.92320000  0.00000000
C        C    0.92320000  0.55370000  0.64850000  0.00000000
C        C    0.85150000  0.94630000  0.57680000  0.00000000
C        C    0.07680000  0.64850000  0.55370000  0.00000000
C        C    0.57680000  0.05370000  0.85150000  0.00000000
C        C    0.14850000  0.94630000  0.42320000  0.00000000
C        C    0.07680000  0.35150000  0.44630000  0.00000000
C        C    0.07680000  0.44630000  0.64850000  0.00000000
C        C    0.42320000  0.05370000  0.14850000  0.00000000
C        C    0.14850000  0.05370000  0.57680000  0.00000000
C        C    0.64850000  0.44630000  0.92320000  0.00000000
C        C    0.44630000  0.92320000  0.64850000  0.00000000
C        C    0.05370000  0.14850000  0.42320000  0.00000000
C        C    0.14850000  0.42320000  0.05370000  0.00000000
C        C    0.92320000  0.35150000  0.55370000  0.00000000
C        C    0.64850000  0.55370000  0.07680000  0.00000000
C        C    0.55370000  0.64850000  0.92320000  0.00000000
C        C    0.42320000  0.14850000  0.94630000  0.00000000
C        C    0.05370000  0.85150000  0.57680000  0.00000000
C        C    0.55370000  0.92320000  0.35150000  0.00000000
C        C    0.92320000  0.44630000  0.35150000  0.00000000
C        C    0.35150000  0.44630000  0.07680000  0.00000000
C        C    0.94630000  0.42320000  0.14850000  0.00000000
C        C    0.05370000  0.57680000  0.14850000  0.00000000
C        C    0.44630000  0.07680000  0.35150000  0.00000000
C        C    0.64850000  0.07680000  0.44630000  0.00000000
C        C    0.90310000  0.68580000  0.52580000  0.00000000
C        C    0.40310000  0.81420000  0.97420000  0.00000000
C        C    0.02580000  0.59690000  0.81420000  0.00000000
C        C    0.68580000  0.90310000  0.47420000  0.00000000
C        C    0.02580000  0.18580000  0.59690000  0.00000000
C        C    0.52580000  0.68580000  0.09690000  0.00000000
C        C    0.47420000  0.09690000  0.68580000  0.00000000
C        C    0.59690000  0.18580000  0.97420000  0.00000000
C        C    0.47420000  0.31420000  0.09690000  0.00000000
C        C    0.02580000  0.81420000  0.40310000  0.00000000
C        C    0.31420000  0.09690000  0.47420000  0.00000000
C        C    0.81420000  0.97420000  0.40310000  0.00000000
C        C    0.81420000  0.40310000  0.02580000  0.00000000
C        C    0.31420000  0.47420000  0.90310000  0.00000000
C        C    0.97420000  0.40310000  0.81420000  0.00000000
C        C    0.31420000  0.90310000  0.52580000  0.00000000
C        C    0.09690000  0.47420000  0.31420000  0.00000000
C        C    0.59690000  0.02580000  0.18580000  0.00000000
C        C    0.81420000  0.59690000  0.97420000  0.00000000
C        C    0.59690000  0.81420000  0.02580000  0.00000000
C        C    0.40310000  0.02580000  0.81420000  0.00000000
C        C    0.18580000  0.59690000  0.02580000  0.00000000
C        C    0.52580000  0.31420000  0.90310000  0.00000000
C        C    0.90310000  0.47420000  0.68580000  0.00000000
C        C    0.81420000  0.02580000  0.59690000  0.00000000
C        C    0.09690000  0.68580000  0.47420000  0.00000000
C        C    0.59690000  0.97420000  0.81420000  0.00000000
C        C    0.18580000  0.02580000  0.40310000  0.00000000
C        C    0.09690000  0.31420000  0.52580000  0.00000000
C        C    0.09690000  0.52580000  0.68580000  0.00000000
C        C    0.40310000  0.97420000  0.18580000  0.00000000
C        C    0.18580000  0.97420000  0.59690000  0.00000000
C        C    0.68580000  0.52580000  0.90310000  0.00000000
C        C    0.52580000  0.90310000  0.68580000  0.00000000
C        C    0.97420000  0.18580000  0.40310000  0.00000000
C        C    0.18580000  0.40310000  0.97420000  0.00000000
C        C    0.90310000  0.31420000  0.47420000  0.00000000
C        C    0.68580000  0.47420000  0.09690000  0.00000000
C        C    0.47420000  0.68580000  0.90310000  0.00000000
C        C    0.40310000  0.18580000  0.02580000  0.00000000
C        C    0.97420000  0.81420000  0.59690000  0.00000000
C        C    0.47420000  0.90310000  0.31420000  0.00000000
C        C    0.90310000  0.52580000  0.31420000  0.00000000
C        C    0.31420000  0.52580000  0.09690000  0.00000000
C        C    0.02580000  0.40310000  0.18580000  0.00000000
C        C    0.97420000  0.59690000  0.18580000  0.00000000
C        C    0.52580000  0.09690000  0.31420000  0.00000000
C        C    0.68580000  0.09690000  0.52580000  0.00000000
C        C    0.92040000  0.64770000  0.55810000  0.00000000
C        C    0.42040000  0.85230000  0.94190000  0.00000000
C        C    0.05810000  0.57960000  0.85230000  0.00000000
C        C    0.64770000  0.92040000  0.44190000  0.00000000
C        C    0.05810000  0.14770000  0.57960000  0.00000000
C        C    0.55810000  0.64770000  0.07960000  0.00000000
C        C    0.44190000  0.07960000  0.64770000  0.00000000
C        C    0.57960000  0.14770000  0.94190000  0.00000000
C        C    0.44190000  0.35230000  0.07960000  0.00000000
C        C    0.05810000  0.85230000  0.42040000  0.00000000
C        C    0.35230000  0.07960000  0.44190000  0.00000000
C        C    0.85230000  0.94190000  0.42040000  0.00000000
C        C    0.85230000  0.42040000  0.05810000  0.00000000
C        C    0.35230000  0.44190000  0.92040000  0.00000000
C        C    0.94190000  0.42040000  0.85230000  0.00000000
C        C    0.35230000  0.92040000  0.55810000  0.00000000
C        C    0.07960000  0.44190000  0.35230000  0.00000000
C        C    0.57960000  0.05810000  0.14770000  0.00000000
C        C    0.85230000  0.57960000  0.94190000  0.00000000
C        C    0.57960000  0.85230000  0.05810000  0.00000000
C        C    0.42040000  0.05810000  0.85230000  0.00000000
C        C    0.14770000  0.57960000  0.05810000  0.00000000
C        C    0.55810000  0.35230000  0.92040000  0.00000000
C        C    0.92040000  0.44190000  0.64770000  0.00000000
C        C    0.85230000  0.05810000  0.57960000  0.00000000
C        C    0.07960000  0.64770000  0.44190000  0.00000000
C        C    0.57960000  0.94190000  0.85230000  0.00000000
C        C    0.14770000  0.05810000  0.42040000  0.00000000
C        C    0.07960000  0.35230000  0.55810000  0.00000000
C        C    0.07960000  0.55810000  0.64770000  0.00000000
C        C    0.42040000  0.94190000  0.14770000  0.00000000
C        C    0.14770000  0.94190000  0.57960000  0.00000000
C        C    0.64770000  0.55810000  0.92040000  0.00000000
C        C    0.55810000  0.92040000  0.64770000  0.00000000
C        C    0.94190000  0.14770000  0.42040000  0.00000000
C        C    0.14770000  0.42040000  0.94190000  0.00000000
C        C    0.92040000  0.35230000  0.44190000  0.00000000
C        C    0.64770000  0.44190000  0.07960000  0.00000000
C        C    0.44190000  0.64770000  0.92040000  0.00000000
C        C    0.42040000  0.14770000  0.05810000  0.00000000
C        C    0.94190000  0.85230000  0.57960000  0.00000000
C        C    0.44190000  0.92040000  0.35230000  0.00000000
C        C    0.92040000  0.55810000  0.35230000  0.00000000
C        C    0.35230000  0.55810000  0.07960000  0.00000000
C        C    0.05810000  0.42040000  0.14770000  0.00000000
C        C    0.94190000  0.57960000  0.14770000  0.00000000
C        C    0.55810000  0.07960000  0.35230000  0.00000000
C        C    0.64770000  0.07960000  0.55810000  0.00000000
C        C    0.82270000  0.82180000  0.40650000  0.00000000
C        C    0.32270000  0.67820000  0.09350000  0.00000000
C        C    0.90650000  0.67730000  0.67820000  0.00000000
C        C    0.82180000  0.82270000  0.59350000  0.00000000
C        C    0.90650000  0.32180000  0.67730000  0.00000000
C        C    0.40650000  0.82180000  0.17730000  0.00000000
C        C    0.59350000  0.17730000  0.82180000  0.00000000
C        C    0.67730000  0.32180000  0.09350000  0.00000000
C        C    0.59350000  0.17820000  0.17730000  0.00000000
C        C    0.90650000  0.67820000  0.32270000  0.00000000
C        C    0.17820000  0.17730000  0.59350000  0.00000000
C        C    0.67820000  0.09350000  0.32270000  0.00000000
C        C    0.67820000  0.32270000  0.90650000  0.00000000
C        C    0.17820000  0.59350000  0.82270000  0.00000000
C        C    0.09350000  0.32270000  0.67820000  0.00000000
C        C    0.17820000  0.82270000  0.40650000  0.00000000
C        C    0.17730000  0.59350000  0.17820000  0.00000000
C        C    0.67730000  0.90650000  0.32180000  0.00000000
C        C    0.67820000  0.67730000  0.09350000  0.00000000
C        C    0.67730000  0.67820000  0.90650000  0.00000000
C        C    0.32270000  0.90650000  0.67820000  0.00000000
C        C    0.32180000  0.67730000  0.90650000  0.00000000
C        C    0.40650000  0.17820000  0.82270000  0.00000000
C        C    0.82270000  0.59350000  0.82180000  0.00000000
C        C    0.67820000  0.90650000  0.67730000  0.00000000
C        C    0.17730000  0.82180000  0.59350000  0.00000000
C        C    0.67730000  0.09350000  0.67820000  0.00000000
C        C    0.32180000  0.90650000  0.32270000  0.00000000
C        C    0.17730000  0.17820000  0.40650000  0.00000000
C        C    0.17730000  0.40650000  0.82180000  0.00000000
C        C    0.32270000  0.09350000  0.32180000  0.00000000
C        C    0.32180000  0.09350000  0.67730000  0.00000000
C        C    0.82180000  0.40650000  0.82270000  0.00000000
C        C    0.40650000  0.82270000  0.82180000  0.00000000
C        C    0.09350000  0.32180000  0.32270000  0.00000000
C        C    0.32180000  0.32270000  0.09350000  0.00000000
C        C    0.82270000  0.17820000  0.59350000  0.00000000
C        C    0.82180000  0.59350000  0.17730000  0.00000000
C        C    0.59350000  0.82180000  0.82270000  0.00000000
C        C    0.32270000  0.32180000  0.90650000  0.00000000
C        C    0.09350000  0.67820000  0.67730000  0.00000000
C        C    0.59350000  0.82270000  0.17820000  0.00000000
C        C    0.82270000  0.40650000  0.17820000  0.00000000
C        C    0.17820000  0.40650000  0.17730000  0.00000000
C        C    0.90650000  0.32270000  0.32180000  0.00000000
C        C    0.09350000  0.67730000  0.32180000  0.00000000
C        C    0.40650000  0.17730000  0.17820000  0.00000000
C        C    0.82180000  0.17730000  0.40650000  0.00000000
C        C    0.85680000  0.81950000  0.33930000  0.00000000
C        C    0.35680000  0.68050000  0.16070000  0.00000000
C        C    0.83930000  0.64320000  0.68050000  0.00000000
C        C    0.81950000  0.85680000  0.66070000  0.00000000
C        C    0.83930000  0.31950000  0.64320000  0.00000000
C        C    0.33930000  0.81950000  0.14320000  0.00000000
C        C    0.66070000  0.14320000  0.81950000  0.00000000
C        C    0.64320000  0.31950000  0.16070000  0.00000000
C        C    0.66070000  0.18050000  0.14320000  0.00000000
C        C    0.83930000  0.68050000  0.35680000  0.00000000
C        C    0.18050000  0.14320000  0.66070000  0.00000000
C        C    0.68050000  0.16070000  0.35680000  0.00000000
C        C    0.68050000  0.35680000  0.83930000  0.00000000
C        C    0.18050000  0.66070000  0.85680000  0.00000000
C        C    0.16070000  0.35680000  0.68050000  0.00000000
C        C    0.18050000  0.85680000  0.33930000  0.00000000
C        C    0.14320000  0.66070000  0.18050000  0.00000000
C        C    0.64320000  0.83930000  0.31950000  0.00000000
C        C    0.68050000  0.64320000  0.16070000  0.00000000
C        C    0.64320000  0.68050000  0.83930000  0.00000000
C        C    0.35680000  0.83930000  0.68050000  0.00000000
C        C    0.31950000  0.64320000  0.83930000  0.00000000
C        C    0.33930000  0.18050000  0.85680000  0.00000000
C        C    0.85680000  0.66070000  0.81950000  0.00000000
C        C    0.68050000  0.83930000  0.64320000  0.00000000
C        C    0.14320000  0.81950000  0.66070000  0.00000000
C        C    0.64320000  0.16070000  0.68050000  0.00000000
C        C    0.31950000  0.83930000  0.35680000  0.00000000
C        C    0.14320000  0.18050000  0.33930000  0.00000000
C        C    0.14320000  0.33930000  0.81950000  0.00000000
C        C    0.35680000  0.16070000  0.31950000  0.00000000
C        C    0.31950000  0.16070000  0.64320000  0.00000000
C        C    0.81950000  0.33930000  0.85680000  0.00000000
C        C    0.33930000  0.85680000  0.81950000  0.00000000
C        C    0.16070000  0.31950000  0.35680000  0.00000000
C        C    0.31950000  0.35680000  0.16070000  0.00000000
C        C    0.85680000  0.18050000  0.66070000  0.00000000
C        C    0.81950000  0.66070000  0.14320000  0.00000000
C        C    0.66070000  0.81950000  0.85680000  0.00000000
C        C    0.35680000  0.31950000  0.83930000  0.00000000
C        C    0.16070000  0.68050000  0.64320000  0.00000000
C        C    0.66070000  0.85680000  0.18050000  0.00000000
C        C    0.85680000  0.33930000  0.18050000  0.00000000
C        C    0.18050000  0.33930000  0.14320000  0.00000000
C        C    0.83930000  0.35680000  0.31950000  0.00000000
C        C    0.16070000  0.64320000  0.31950000  0.00000000
C        C    0.33930000  0.14320000  0.18050000  0.00000000
C        C    0.81950000  0.14320000  0.33930000  0.00000000
C        C    0.88930000  0.80620000  0.29990000  0.00000000
C        C    0.38930000  0.69380000  0.20010000  0.00000000
C        C    0.79990000  0.61070000  0.69380000  0.00000000
C        C    0.80620000  0.88930000  0.70010000  0.00000000
C        C    0.79990000  0.30620000  0.61070000  0.00000000
C        C    0.29990000  0.80620000  0.11070000  0.00000000
C        C    0.70010000  0.11070000  0.80620000  0.00000000
C        C    0.61070000  0.30620000  0.20010000  0.00000000
C        C    0.70010000  0.19380000  0.11070000  0.00000000
C        C    0.79990000  0.69380000  0.38930000  0.00000000
C        C    0.19380000  0.11070000  0.70010000  0.00000000
C        C    0.69380000  0.20010000  0.38930000  0.00000000
C        C    0.69380000  0.38930000  0.79990000  0.00000000
C        C    0.19380000  0.70010000  0.88930000  0.00000000
C        C    0.20010000  0.38930000  0.69380000  0.00000000
C        C    0.19380000  0.88930000  0.29990000  0.00000000
C        C    0.11070000  0.70010000  0.19380000  0.00000000
C        C    0.61070000  0.79990000  0.30620000  0.00000000
C        C    0.69380000  0.61070000  0.20010000  0.00000000
C        C    0.61070000  0.69380000  0.79990000  0.00000000
C        C    0.38930000  0.79990000  0.69380000  0.00000000
C        C    0.30620000  0.61070000  0.79990000  0.00000000
C        C    0.29990000  0.19380000  0.88930000  0.00000000
C        C    0.88930000  0.70010000  0.80620000  0.00000000
C        C    0.69380000  0.79990000  0.61070000  0.00000000
C        C    0.11070000  0.80620000  0.70010000  0.00000000
C        C    0.61070000  0.20010000  0.69380000  0.00000000
C        C    0.30620000  0.79990000  0.38930000  0.00000000
C        C    0.11070000  0.19380000  0.29990000  0.00000000
C        C    0.11070000  0.29990000  0.80620000  0.00000000
C        C    0.38930000  0.20010000  0.30620000  0.00000000
C        C    0.30620000  0.20010000  0.61070000  0.00000000
C        C    0.80620000  0.29990000  0.88930000  0.00000000
C        C    0.29990000  0.88930000  0.80620000  0.00000000
C        C    0.20010000  0.30620000  0.38930000  0.00000000
C        C    0.30620000  0.38930000  0.20010000  0.00000000
C        C    0.88930000  0.19380000  0.70010000  0.00000000
C        C    0.80620000  0.70010000  0.11070000  0.00000000
C        C    0.70010000  0.80620000  0.88930000  0.00000000
C        C    0.38930000  0.30620000  0.79990000  0.00000000
C        C    0.20010000  0.69380000  0.61070000  0.00000000
C        C    0.70010000  0.88930000  0.19380000  0.00000000
C        C    0.88930000  0.29990000  0.19380000  0.00000000
C        C    0.19380000  0.29990000  0.11070000  0.00000000
C        C    0.79990000  0.38930000  0.30620000  0.00000000
C        C    0.20010000  0.61070000  0.30620000  0.00000000
C        C    0.29990000  0.11070000  0.19380000  0.00000000
C        C    0.80620000  0.11070000  0.29990000  0.00000000
C        C    0.82210000  0.85320000  0.33790000  0.00000000
C        C    0.32210000  0.64680000  0.16210000  0.00000000
C        C    0.83790000  0.67790000  0.64680000  0.00000000
C        C    0.85320000  0.82210000  0.66210000  0.00000000
C        C    0.83790000  0.35320000  0.67790000  0.00000000
C        C    0.33790000  0.85320000  0.17790000  0.00000000
C        C    0.66210000  0.17790000  0.85320000  0.00000000
C        C    0.67790000  0.35320000  0.16210000  0.00000000
C        C    0.66210000  0.14680000  0.17790000  0.00000000
C        C    0.83790000  0.64680000  0.32210000  0.00000000
C        C    0.14680000  0.17790000  0.66210000  0.00000000
C        C    0.64680000  0.16210000  0.32210000  0.00000000
C        C    0.64680000  0.32210000  0.83790000  0.00000000
C        C    0.14680000  0.66210000  0.82210000  0.00000000
C        C    0.16210000  0.32210000  0.64680000  0.00000000
C        C    0.14680000  0.82210000  0.33790000  0.00000000
C        C    0.17790000  0.66210000  0.14680000  0.00000000
C        C    0.67790000  0.83790000  0.35320000  0.00000000
C        C    0.64680000  0.67790000  0.16210000  0.00000000
C        C    0.67790000  0.64680000  0.83790000  0.00000000
C        C    0.32210000  0.83790000  0.64680000  0.00000000
C        C    0.35320000  0.67790000  0.83790000  0.00000000
C        C    0.33790000  0.14680000  0.82210000  0.00000000
C        C    0.82210000  0.66210000  0.85320000  0.00000000
C        C    0.64680000  0.83790000  0.67790000  0.00000000
C        C    0.17790000  0.85320000  0.66210000  0.00000000
C        C    0.67790000  0.16210000  0.64680000  0.00000000
C        C    0.35320000  0.83790000  0.32210000  0.00000000
C        C    0.17790000  0.14680000  0.33790000  0.00000000
C        C    0.17790000  0.33790000  0.85320000  0.00000000
C        C    0.32210000  0.16210000  0.35320000  0.00000000
C        C    0.35320000  0.16210000  0.67790000  0.00000000
C        C    0.85320000  0.33790000  0.82210000  0.00000000
C        C    0.33790000  0.82210000  0.85320000  0.00000000
C        C    0.16210000  0.35320000  0.32210000  0.00000000
C        C    0.35320000  0.32210000  0.16210000  0.00000000
C        C    0.82210000  0.14680000  0.66210000  0.00000000
C        C    0.85320000  0.66210000  0.17790000  0.00000000
C        C    0.66210000  0.85320000  0.82210000  0.00000000
C        C    0.32210000  0.35320000  0.83790000  0.00000000
C        C    0.16210000  0.64680000  0.67790000  0.00000000
C        C    0.66210000  0.82210000  0.14680000  0.00000000
C        C    0.82210000  0.33790000  0.14680000  0.00000000
C        C    0.14680000  0.33790000  0.17790000  0.00000000
C        C    0.83790000  0.32210000  0.35320000  0.00000000
C        C    0.16210000  0.67790000  0.35320000  0.00000000
C        C    0.33790000  0.17790000  0.14680000  0.00000000
C        C    0.85320000  0.17790000  0.33790000  0.00000000
C        C    0.81070000  0.88310000  0.29710000  0.00000000
C        C    0.31070000  0.61690000  0.20290000  0.00000000
C        C    0.79710000  0.68930000  0.61690000  0.00000000
C        C    0.88310000  0.81070000  0.70290000  0.00000000
C        C    0.79710000  0.38310000  0.68930000  0.00000000
C        C    0.29710000  0.88310000  0.18930000  0.00000000
C        C    0.70290000  0.18930000  0.88310000  0.00000000
C        C    0.68930000  0.38310000  0.20290000  0.00000000
C        C    0.70290000  0.11690000  0.18930000  0.00000000
C        C    0.79710000  0.61690000  0.31070000  0.00000000
C        C    0.11690000  0.18930000  0.70290000  0.00000000
C        C    0.61690000  0.20290000  0.31070000  0.00000000
C        C    0.61690000  0.31070000  0.79710000  0.00000000
C        C    0.11690000  0.70290000  0.81070000  0.00000000
C        C    0.20290000  0.31070000  0.61690000  0.00000000
C        C    0.11690000  0.81070000  0.29710000  0.00000000
C        C    0.18930000  0.70290000  0.11690000  0.00000000
C        C    0.68930000  0.79710000  0.38310000  0.00000000
C        C    0.61690000  0.68930000  0.20290000  0.00000000
C        C    0.68930000  0.61690000  0.79710000  0.00000000
C        C    0.31070000  0.79710000  0.61690000  0.00000000
C        C    0.38310000  0.68930000  0.79710000  0.00000000
C        C    0.29710000  0.11690000  0.81070000  0.00000000
C        C    0.81070000  0.70290000  0.88310000  0.00000000
C        C    0.61690000  0.79710000  0.68930000  0.00000000
C        C    0.18930000  0.88310000  0.70290000  0.00000000
C        C    0.68930000  0.20290000  0.61690000  0.00000000
C        C    0.38310000  0.79710000  0.31070000  0.00000000
C        C    0.18930000  0.11690000  0.29710000  0.00000000
C        C    0.18930000  0.29710000  0.88310000  0.00000000
C        C    0.31070000  0.20290000  0.38310000  0.00000000
C        C    0.38310000  0.20290000  0.68930000  0.00000000
C        C    0.88310000  0.29710000  0.81070000  0.00000000
C        C    0.29710000  0.81070000  0.88310000  0.00000000
C        C    0.20290000  0.38310000  0.31070000  0.00000000
C        C    0.38310000  0.31070000  0.20290000  0.00000000
C        C    0.81070000  0.11690000  0.70290000  0.00000000
C        C    0.88310000  0.70290000  0.18930000  0.00000000
C        C    0.70290000  0.88310000  0.81070000  0.00000000
C        C    0.31070000  0.38310000  0.79710000  0.00000000
C        C    0.20290000  0.61690000  0.68930000  0.00000000
C        C    0.70290000  0.81070000  0.11690000  0.00000000
C        C    0.81070000  0.29710000  0.11690000  0.00000000
C        C    0.11690000  0.29710000  0.18930000  0.00000000
C        C    0.79710000  0.31070000  0.38310000  0.00000000
C        C    0.20290000  0.68930000  0.38310000  0.00000000
C        C    0.29710000  0.18930000  0.11690000  0.00000000
C        C    0.88310000  0.18930000  0.29710000  0.00000000
N        N    0.89210000  0.72900000  0.46160000  0.00000000
N        N    0.39210000  0.77100000  0.03840000  0.00000000
N        N    0.96160000  0.60790000  0.77100000  0.00000000
N        N    0.72900000  0.89210000  0.53840000  0.00000000
N        N    0.96160000  0.22900000  0.60790000  0.00000000
N        N    0.46160000  0.72900000  0.10790000  0.00000000
N        N    0.53840000  0.10790000  0.72900000  0.00000000
N        N    0.60790000  0.22900000  0.03840000  0.00000000
N        N    0.53840000  0.27100000  0.10790000  0.00000000
N        N    0.96160000  0.77100000  0.39210000  0.00000000
N        N    0.27100000  0.10790000  0.53840000  0.00000000
N        N    0.77100000  0.03840000  0.39210000  0.00000000
N        N    0.77100000  0.39210000  0.96160000  0.00000000
N        N    0.27100000  0.53840000  0.89210000  0.00000000
N        N    0.03840000  0.39210000  0.77100000  0.00000000
N        N    0.27100000  0.89210000  0.46160000  0.00000000
N        N    0.10790000  0.53840000  0.27100000  0.00000000
N        N    0.60790000  0.96160000  0.22900000  0.00000000
N        N    0.77100000  0.60790000  0.03840000  0.00000000
N        N    0.60790000  0.77100000  0.96160000  0.00000000
N        N    0.39210000  0.96160000  0.77100000  0.00000000
N        N    0.22900000  0.60790000  0.96160000  0.00000000
N        N    0.46160000  0.27100000  0.89210000  0.00000000
N        N    0.89210000  0.53840000  0.72900000  0.00000000
N        N    0.77100000  0.96160000  0.60790000  0.00000000
N        N    0.10790000  0.72900000  0.53840000  0.00000000
N        N    0.60790000  0.03840000  0.77100000  0.00000000
N        N    0.22900000  0.96160000  0.39210000  0.00000000
N        N    0.10790000  0.27100000  0.46160000  0.00000000
N        N    0.10790000  0.46160000  0.72900000  0.00000000
N        N    0.39210000  0.03840000  0.22900000  0.00000000
N        N    0.22900000  0.03840000  0.60790000  0.00000000
N        N    0.72900000  0.46160000  0.89210000  0.00000000
N        N    0.46160000  0.89210000  0.72900000  0.00000000
N        N    0.03840000  0.22900000  0.39210000  0.00000000
N        N    0.22900000  0.39210000  0.03840000  0.00000000
N        N    0.89210000  0.27100000  0.53840000  0.00000000
N        N    0.72900000  0.53840000  0.10790000  0.00000000
N        N    0.53840000  0.72900000  0.89210000  0.00000000
N        N    0.39210000  0.22900000  0.96160000  0.00000000
N        N    0.03840000  0.77100000  0.60790000  0.00000000
N        N    0.53840000  0.89210000  0.27100000  0.00000000
N        N    0.89210000  0.46160000  0.27100000  0.00000000
N        N    0.27100000  0.46160000  0.10790000  0.00000000
N        N    0.96160000  0.39210000  0.22900000  0.00000000
N        N    0.03840000  0.60790000  0.22900000  0.00000000
N        N    0.46160000  0.10790000  0.27100000  0.00000000
N        N    0.72900000  0.10790000  0.46160000  0.00000000
N        N    0.88960000  0.72880000  0.54080000  0.00000000
N        N    0.38960000  0.77120000  0.95920000  0.00000000
N        N    0.04080000  0.61040000  0.77120000  0.00000000
N        N    0.72880000  0.88960000  0.45920000  0.00000000
N        N    0.04080000  0.22880000  0.61040000  0.00000000
N        N    0.54080000  0.72880000  0.11040000  0.00000000
N        N    0.45920000  0.11040000  0.72880000  0.00000000
N        N    0.61040000  0.22880000  0.95920000  0.00000000
N        N    0.45920000  0.27120000  0.11040000  0.00000000
N        N    0.04080000  0.77120000  0.38960000  0.00000000
N        N    0.27120000  0.11040000  0.45920000  0.00000000
N        N    0.77120000  0.95920000  0.38960000  0.00000000
N        N    0.77120000  0.38960000  0.04080000  0.00000000
N        N    0.27120000  0.45920000  0.88960000  0.00000000
N        N    0.95920000  0.38960000  0.77120000  0.00000000
N        N    0.27120000  0.88960000  0.54080000  0.00000000
N        N    0.11040000  0.45920000  0.27120000  0.00000000
N        N    0.61040000  0.04080000  0.22880000  0.00000000
N        N    0.77120000  0.61040000  0.95920000  0.00000000
N        N    0.61040000  0.77120000  0.04080000  0.00000000
N        N    0.38960000  0.04080000  0.77120000  0.00000000
N        N    0.22880000  0.61040000  0.04080000  0.00000000
N        N    0.54080000  0.27120000  0.88960000  0.00000000
N        N    0.88960000  0.45920000  0.72880000  0.00000000
N        N    0.77120000  0.04080000  0.61040000  0.00000000
N        N    0.11040000  0.72880000  0.45920000  0.00000000
N        N    0.61040000  0.95920000  0.77120000  0.00000000
N        N    0.22880000  0.04080000  0.38960000  0.00000000
N        N    0.11040000  0.27120000  0.54080000  0.00000000
N        N    0.11040000  0.54080000  0.72880000  0.00000000
N        N    0.38960000  0.95920000  0.22880000  0.00000000
N        N    0.22880000  0.95920000  0.61040000  0.00000000
N        N    0.72880000  0.54080000  0.88960000  0.00000000
N        N    0.54080000  0.88960000  0.72880000  0.00000000
N        N    0.95920000  0.22880000  0.38960000  0.00000000
N        N    0.22880000  0.38960000  0.95920000  0.00000000
N        N    0.88960000  0.27120000  0.45920000  0.00000000
N        N    0.72880000  0.45920000  0.11040000  0.00000000
N        N    0.45920000  0.72880000  0.88960000  0.00000000
N        N    0.38960000  0.22880000  0.04080000  0.00000000
N        N    0.95920000  0.77120000  0.61040000  0.00000000
N        N    0.45920000  0.88960000  0.27120000  0.00000000
N        N    0.88960000  0.54080000  0.27120000  0.00000000
N        N    0.27120000  0.54080000  0.11040000  0.00000000
N        N    0.04080000  0.38960000  0.22880000  0.00000000
N        N    0.95920000  0.61040000  0.22880000  0.00000000
N        N    0.54080000  0.11040000  0.27120000  0.00000000
N        N    0.72880000  0.11040000  0.54080000  0.00000000
N        N    0.80050000  0.85490000  0.38030000  0.00000000
N        N    0.30050000  0.64510000  0.11970000  0.00000000
N        N    0.88030000  0.69950000  0.64510000  0.00000000
N        N    0.85490000  0.80050000  0.61970000  0.00000000
N        N    0.88030000  0.35490000  0.69950000  0.00000000
N        N    0.38030000  0.85490000  0.19950000  0.00000000
N        N    0.61970000  0.19950000  0.85490000  0.00000000
N        N    0.69950000  0.35490000  0.11970000  0.00000000
N        N    0.61970000  0.14510000  0.19950000  0.00000000
N        N    0.88030000  0.64510000  0.30050000  0.00000000
N        N    0.14510000  0.19950000  0.61970000  0.00000000
N        N    0.64510000  0.11970000  0.30050000  0.00000000
N        N    0.64510000  0.30050000  0.88030000  0.00000000
N        N    0.14510000  0.61970000  0.80050000  0.00000000
N        N    0.11970000  0.30050000  0.64510000  0.00000000
N        N    0.14510000  0.80050000  0.38030000  0.00000000
N        N    0.19950000  0.61970000  0.14510000  0.00000000
N        N    0.69950000  0.88030000  0.35490000  0.00000000
N        N    0.64510000  0.69950000  0.11970000  0.00000000
N        N    0.69950000  0.64510000  0.88030000  0.00000000
N        N    0.30050000  0.88030000  0.64510000  0.00000000
N        N    0.35490000  0.69950000  0.88030000  0.00000000
N        N    0.38030000  0.14510000  0.80050000  0.00000000
N        N    0.80050000  0.61970000  0.85490000  0.00000000
N        N    0.64510000  0.88030000  0.69950000  0.00000000
N        N    0.19950000  0.85490000  0.61970000  0.00000000
N        N    0.69950000  0.11970000  0.64510000  0.00000000
N        N    0.35490000  0.88030000  0.30050000  0.00000000
N        N    0.19950000  0.14510000  0.38030000  0.00000000
N        N    0.19950000  0.38030000  0.85490000  0.00000000
N        N    0.30050000  0.11970000  0.35490000  0.00000000
N        N    0.35490000  0.11970000  0.69950000  0.00000000
N        N    0.85490000  0.38030000  0.80050000  0.00000000
N        N    0.38030000  0.80050000  0.85490000  0.00000000
N        N    0.11970000  0.35490000  0.30050000  0.00000000
N        N    0.35490000  0.30050000  0.11970000  0.00000000
N        N    0.80050000  0.14510000  0.61970000  0.00000000
N        N    0.85490000  0.61970000  0.19950000  0.00000000
N        N    0.61970000  0.85490000  0.80050000  0.00000000
N        N    0.30050000  0.35490000  0.88030000  0.00000000
N        N    0.11970000  0.64510000  0.69950000  0.00000000
N        N    0.61970000  0.80050000  0.14510000  0.00000000
N        N    0.80050000  0.38030000  0.14510000  0.00000000
N        N    0.14510000  0.38030000  0.19950000  0.00000000
N        N    0.88030000  0.30050000  0.35490000  0.00000000
N        N    0.11970000  0.69950000  0.35490000  0.00000000
N        N    0.38030000  0.19950000  0.14510000  0.00000000
N        N    0.85490000  0.19950000  0.38030000  0.00000000
N        N    0.85730000  0.79970000  0.38240000  0.00000000
N        N    0.35730000  0.70030000  0.11760000  0.00000000
N        N    0.88240000  0.64270000  0.70030000  0.00000000
N        N    0.79970000  0.85730000  0.61760000  0.00000000
N        N    0.88240000  0.29970000  0.64270000  0.00000000
N        N    0.38240000  0.79970000  0.14270000  0.00000000
N        N    0.61760000  0.14270000  0.79970000  0.00000000
N        N    0.64270000  0.29970000  0.11760000  0.00000000
N        N    0.61760000  0.20030000  0.14270000  0.00000000
N        N    0.88240000  0.70030000  0.35730000  0.00000000
N        N    0.20030000  0.14270000  0.61760000  0.00000000
N        N    0.70030000  0.11760000  0.35730000  0.00000000
N        N    0.70030000  0.35730000  0.88240000  0.00000000
N        N    0.20030000  0.61760000  0.85730000  0.00000000
N        N    0.11760000  0.35730000  0.70030000  0.00000000
N        N    0.20030000  0.85730000  0.38240000  0.00000000
N        N    0.14270000  0.61760000  0.20030000  0.00000000
N        N    0.64270000  0.88240000  0.29970000  0.00000000
N        N    0.70030000  0.64270000  0.11760000  0.00000000
N        N    0.64270000  0.70030000  0.88240000  0.00000000
N        N    0.35730000  0.88240000  0.70030000  0.00000000
N        N    0.29970000  0.64270000  0.88240000  0.00000000
N        N    0.38240000  0.20030000  0.85730000  0.00000000
N        N    0.85730000  0.61760000  0.79970000  0.00000000
N        N    0.70030000  0.88240000  0.64270000  0.00000000
N        N    0.14270000  0.79970000  0.61760000  0.00000000
N        N    0.64270000  0.11760000  0.70030000  0.00000000
N        N    0.29970000  0.88240000  0.35730000  0.00000000
N        N    0.14270000  0.20030000  0.38240000  0.00000000
N        N    0.14270000  0.38240000  0.79970000  0.00000000
N        N    0.35730000  0.11760000  0.29970000  0.00000000
N        N    0.29970000  0.11760000  0.64270000  0.00000000
N        N    0.79970000  0.38240000  0.85730000  0.00000000
N        N    0.38240000  0.85730000  0.79970000  0.00000000
N        N    0.11760000  0.29970000  0.35730000  0.00000000
N        N    0.29970000  0.35730000  0.11760000  0.00000000
N        N    0.85730000  0.20030000  0.61760000  0.00000000
N        N    0.79970000  0.61760000  0.14270000  0.00000000
N        N    0.61760000  0.79970000  0.85730000  0.00000000
N        N    0.35730000  0.29970000  0.88240000  0.00000000
N        N    0.11760000  0.70030000  0.64270000  0.00000000
N        N    0.61760000  0.85730000  0.20030000  0.00000000
N        N    0.85730000  0.38240000  0.20030000  0.00000000
N        N    0.20030000  0.38240000  0.14270000  0.00000000
N        N    0.88240000  0.35730000  0.29970000  0.00000000
N        N    0.11760000  0.64270000  0.29970000  0.00000000
N        N    0.38240000  0.14270000  0.20030000  0.00000000
N        N    0.79970000  0.14270000  0.38240000  0.00000000
H        H    0.87215000  0.79269000  0.49817000  0.00000000
H        H    0.37215000  0.70731000  0.00183000  0.00000000
H        H    0.99817000  0.62785000  0.70731000  0.00000000
H        H    0.79269000  0.87215000  0.50183000  0.00000000
H        H    0.99817000  0.29269000  0.62785000  0.00000000
H        H    0.49817000  0.79269000  0.12785000  0.00000000
H        H    0.50183000  0.12785000  0.79269000  0.00000000
H        H    0.62785000  0.29269000  0.00183000  0.00000000
H        H    0.50183000  0.20731000  0.12785000  0.00000000
H        H    0.99817000  0.70731000  0.37215000  0.00000000
H        H    0.20731000  0.12785000  0.50183000  0.00000000
H        H    0.70731000  0.00183000  0.37215000  0.00000000
H        H    0.70731000  0.37215000  0.99817000  0.00000000
H        H    0.20731000  0.50183000  0.87215000  0.00000000
H        H    0.00183000  0.37215000  0.70731000  0.00000000
H        H    0.20731000  0.87215000  0.49817000  0.00000000
H        H    0.12785000  0.50183000  0.20731000  0.00000000
H        H    0.62785000  0.99817000  0.29269000  0.00000000
H        H    0.70731000  0.62785000  0.00183000  0.00000000
H        H    0.62785000  0.70731000  0.99817000  0.00000000
H        H    0.37215000  0.99817000  0.70731000  0.00000000
H        H    0.29269000  0.62785000  0.99817000  0.00000000
H        H    0.49817000  0.20731000  0.87215000  0.00000000
H        H    0.87215000  0.50183000  0.79269000  0.00000000
H        H    0.70731000  0.99817000  0.62785000  0.00000000
H        H    0.12785000  0.79269000  0.50183000  0.00000000
H        H    0.62785000  0.00183000  0.70731000  0.00000000
H        H    0.29269000  0.99817000  0.37215000  0.00000000
H        H    0.12785000  0.20731000  0.49817000  0.00000000
H        H    0.12785000  0.49817000  0.79269000  0.00000000
H        H    0.37215000  0.00183000  0.29269000  0.00000000
H        H    0.29269000  0.00183000  0.62785000  0.00000000
H        H    0.79269000  0.49817000  0.87215000  0.00000000
H        H    0.49817000  0.87215000  0.79269000  0.00000000
H        H    0.00183000  0.29269000  0.37215000  0.00000000
H        H    0.29269000  0.37215000  0.00183000  0.00000000
H        H    0.87215000  0.20731000  0.50183000  0.00000000
H        H    0.79269000  0.50183000  0.12785000  0.00000000
H        H    0.50183000  0.79269000  0.87215000  0.00000000
H        H    0.37215000  0.29269000  0.99817000  0.00000000
H        H    0.00183000  0.70731000  0.62785000  0.00000000
H        H    0.50183000  0.87215000  0.20731000  0.00000000
H        H    0.87215000  0.49817000  0.20731000  0.00000000
H        H    0.20731000  0.49817000  0.12785000  0.00000000
H        H    0.99817000  0.37215000  0.29269000  0.00000000
H        H    0.00183000  0.62785000  0.29269000  0.00000000
H        H    0.49817000  0.12785000  0.20731000  0.00000000
H        H    0.79269000  0.12785000  0.49817000  0.00000000
H        H    0.94017000  0.65790000  0.41109000  0.00000000
H        H    0.44017000  0.84210000  0.08891000  0.00000000
H        H    0.91109000  0.55983000  0.84210000  0.00000000
H        H    0.65790000  0.94017000  0.58891000  0.00000000
H        H    0.91109000  0.15790000  0.55983000  0.00000000
H        H    0.41109000  0.65790000  0.05983000  0.00000000
H        H    0.58891000  0.05983000  0.65790000  0.00000000
H        H    0.55983000  0.15790000  0.08891000  0.00000000
H        H    0.58891000  0.34210000  0.05983000  0.00000000
H        H    0.91109000  0.84210000  0.44017000  0.00000000
H        H    0.34210000  0.05983000  0.58891000  0.00000000
H        H    0.84210000  0.08891000  0.44017000  0.00000000
H        H    0.84210000  0.44017000  0.91109000  0.00000000
H        H    0.34210000  0.58891000  0.94017000  0.00000000
H        H    0.08891000  0.44017000  0.84210000  0.00000000
H        H    0.34210000  0.94017000  0.41109000  0.00000000
H        H    0.05983000  0.58891000  0.34210000  0.00000000
H        H    0.55983000  0.91109000  0.15790000  0.00000000
H        H    0.84210000  0.55983000  0.08891000  0.00000000
H        H    0.55983000  0.84210000  0.91109000  0.00000000
H        H    0.44017000  0.91109000  0.84210000  0.00000000
H        H    0.15790000  0.55983000  0.91109000  0.00000000
H        H    0.41109000  0.34210000  0.94017000  0.00000000
H        H    0.94017000  0.58891000  0.65790000  0.00000000
H        H    0.84210000  0.91109000  0.55983000  0.00000000
H        H    0.05983000  0.65790000  0.58891000  0.00000000
H        H    0.55983000  0.08891000  0.84210000  0.00000000
H        H    0.15790000  0.91109000  0.44017000  0.00000000
H        H    0.05983000  0.34210000  0.41109000  0.00000000
H        H    0.05983000  0.41109000  0.65790000  0.00000000
H        H    0.44017000  0.08891000  0.15790000  0.00000000
H        H    0.15790000  0.08891000  0.55983000  0.00000000
H        H    0.65790000  0.41109000  0.94017000  0.00000000
H        H    0.41109000  0.94017000  0.65790000  0.00000000
H        H    0.08891000  0.15790000  0.44017000  0.00000000
H        H    0.15790000  0.44017000  0.08891000  0.00000000
H        H    0.94017000  0.34210000  0.58891000  0.00000000
H        H    0.65790000  0.58891000  0.05983000  0.00000000
H        H    0.58891000  0.65790000  0.94017000  0.00000000
H        H    0.44017000  0.15790000  0.91109000  0.00000000
H        H    0.08891000  0.84210000  0.55983000  0.00000000
H        H    0.58891000  0.94017000  0.34210000  0.00000000
H        H    0.94017000  0.41109000  0.34210000  0.00000000
H        H    0.34210000  0.41109000  0.05983000  0.00000000
H        H    0.91109000  0.44017000  0.15790000  0.00000000
H        H    0.08891000  0.55983000  0.15790000  0.00000000
H        H    0.41109000  0.05983000  0.34210000  0.00000000
H        H    0.65790000  0.05983000  0.41109000  0.00000000
H        H    0.89038000  0.62214000  0.56597000  0.00000000
H        H    0.39038000  0.87786000  0.93403000  0.00000000
H        H    0.06597000  0.60962000  0.87786000  0.00000000
H        H    0.62214000  0.89038000  0.43403000  0.00000000
H        H    0.06597000  0.12214000  0.60962000  0.00000000
H        H    0.56597000  0.62214000  0.10962000  0.00000000
H        H    0.43403000  0.10962000  0.62214000  0.00000000
H        H    0.60962000  0.12214000  0.93403000  0.00000000
H        H    0.43403000  0.37786000  0.10962000  0.00000000
H        H    0.06597000  0.87786000  0.39038000  0.00000000
H        H    0.37786000  0.10962000  0.43403000  0.00000000
H        H    0.87786000  0.93403000  0.39038000  0.00000000
H        H    0.87786000  0.39038000  0.06597000  0.00000000
H        H    0.37786000  0.43403000  0.89038000  0.00000000
H        H    0.93403000  0.39038000  0.87786000  0.00000000
H        H    0.37786000  0.89038000  0.56597000  0.00000000
H        H    0.10962000  0.43403000  0.37786000  0.00000000
H        H    0.60962000  0.06597000  0.12214000  0.00000000
H        H    0.87786000  0.60962000  0.93403000  0.00000000
H        H    0.60962000  0.87786000  0.06597000  0.00000000
H        H    0.39038000  0.06597000  0.87786000  0.00000000
H        H    0.12214000  0.60962000  0.06597000  0.00000000
H        H    0.56597000  0.37786000  0.89038000  0.00000000
H        H    0.89038000  0.43403000  0.62214000  0.00000000
H        H    0.87786000  0.06597000  0.60962000  0.00000000
H        H    0.10962000  0.62214000  0.43403000  0.00000000
H        H    0.60962000  0.93403000  0.87786000  0.00000000
H        H    0.12214000  0.06597000  0.39038000  0.00000000
H        H    0.10962000  0.37786000  0.56597000  0.00000000
H        H    0.10962000  0.56597000  0.62214000  0.00000000
H        H    0.39038000  0.93403000  0.12214000  0.00000000
H        H    0.12214000  0.93403000  0.60962000  0.00000000
H        H    0.62214000  0.56597000  0.89038000  0.00000000
H        H    0.56597000  0.89038000  0.62214000  0.00000000
H        H    0.93403000  0.12214000  0.39038000  0.00000000
H        H    0.12214000  0.39038000  0.93403000  0.00000000
H        H    0.89038000  0.37786000  0.43403000  0.00000000
H        H    0.62214000  0.43403000  0.10962000  0.00000000
H        H    0.43403000  0.62214000  0.89038000  0.00000000
H        H    0.39038000  0.12214000  0.06597000  0.00000000
H        H    0.93403000  0.87786000  0.60962000  0.00000000
H        H    0.43403000  0.89038000  0.37786000  0.00000000
H        H    0.89038000  0.56597000  0.37786000  0.00000000
H        H    0.37786000  0.56597000  0.10962000  0.00000000
H        H    0.06597000  0.39038000  0.12214000  0.00000000
H        H    0.93403000  0.60962000  0.12214000  0.00000000
H        H    0.56597000  0.10962000  0.37786000  0.00000000
H        H    0.62214000  0.10962000  0.56597000  0.00000000
H        H    0.93337000  0.66411000  0.59243000  0.00000000
H        H    0.43337000  0.83589000  0.90757000  0.00000000
H        H    0.09243000  0.56663000  0.83589000  0.00000000
H        H    0.66411000  0.93337000  0.40757000  0.00000000
H        H    0.09243000  0.16411000  0.56663000  0.00000000
H        H    0.59243000  0.66411000  0.06663000  0.00000000
H        H    0.40757000  0.06663000  0.66411000  0.00000000
H        H    0.56663000  0.16411000  0.90757000  0.00000000
H        H    0.40757000  0.33589000  0.06663000  0.00000000
H        H    0.09243000  0.83589000  0.43337000  0.00000000
H        H    0.33589000  0.06663000  0.40757000  0.00000000
H        H    0.83589000  0.90757000  0.43337000  0.00000000
H        H    0.83589000  0.43337000  0.09243000  0.00000000
H        H    0.33589000  0.40757000  0.93337000  0.00000000
H        H    0.90757000  0.43337000  0.83589000  0.00000000
H        H    0.33589000  0.93337000  0.59243000  0.00000000
H        H    0.06663000  0.40757000  0.33589000  0.00000000
H        H    0.56663000  0.09243000  0.16411000  0.00000000
H        H    0.83589000  0.56663000  0.90757000  0.00000000
H        H    0.56663000  0.83589000  0.09243000  0.00000000
H        H    0.43337000  0.09243000  0.83589000  0.00000000
H        H    0.16411000  0.56663000  0.09243000  0.00000000
H        H    0.59243000  0.33589000  0.93337000  0.00000000
H        H    0.93337000  0.40757000  0.66411000  0.00000000
H        H    0.83589000  0.09243000  0.56663000  0.00000000
H        H    0.06663000  0.66411000  0.40757000  0.00000000
H        H    0.56663000  0.90757000  0.83589000  0.00000000
H        H    0.16411000  0.09243000  0.43337000  0.00000000
H        H    0.06663000  0.33589000  0.59243000  0.00000000
H        H    0.06663000  0.59243000  0.66411000  0.00000000
H        H    0.43337000  0.90757000  0.16411000  0.00000000
H        H    0.16411000  0.90757000  0.56663000  0.00000000
H        H    0.66411000  0.59243000  0.93337000  0.00000000
H        H    0.59243000  0.93337000  0.66411000  0.00000000
H        H    0.90757000  0.16411000  0.43337000  0.00000000
H        H    0.16411000  0.43337000  0.90757000  0.00000000
H        H    0.93337000  0.33589000  0.40757000  0.00000000
H        H    0.66411000  0.40757000  0.06663000  0.00000000
H        H    0.40757000  0.66411000  0.93337000  0.00000000
H        H    0.43337000  0.16411000  0.09243000  0.00000000
H        H    0.90757000  0.83589000  0.56663000  0.00000000
H        H    0.40757000  0.93337000  0.33589000  0.00000000
H        H    0.93337000  0.59243000  0.33589000  0.00000000
H        H    0.33589000  0.59243000  0.06663000  0.00000000
H        H    0.09243000  0.43337000  0.16411000  0.00000000
H        H    0.90757000  0.56663000  0.16411000  0.00000000
H        H    0.59243000  0.06663000  0.33589000  0.00000000
H        H    0.66411000  0.06663000  0.59243000  0.00000000
H        H    0.95060000  0.62787000  0.54047000  0.00000000
H        H    0.45060000  0.87213000  0.95953000  0.00000000
H        H    0.04047000  0.54940000  0.87213000  0.00000000
H        H    0.62787000  0.95060000  0.45953000  0.00000000
H        H    0.04047000  0.12787000  0.54940000  0.00000000
H        H    0.54047000  0.62787000  0.04940000  0.00000000
H        H    0.45953000  0.04940000  0.62787000  0.00000000
H        H    0.54940000  0.12787000  0.95953000  0.00000000
H        H    0.45953000  0.37213000  0.04940000  0.00000000
H        H    0.04047000  0.87213000  0.45060000  0.00000000
H        H    0.37213000  0.04940000  0.45953000  0.00000000
H        H    0.87213000  0.95953000  0.45060000  0.00000000
H        H    0.87213000  0.45060000  0.04047000  0.00000000
H        H    0.37213000  0.45953000  0.95060000  0.00000000
H        H    0.95953000  0.45060000  0.87213000  0.00000000
H        H    0.37213000  0.95060000  0.54047000  0.00000000
H        H    0.04940000  0.45953000  0.37213000  0.00000000
H        H    0.54940000  0.04047000  0.12787000  0.00000000
H        H    0.87213000  0.54940000  0.95953000  0.00000000
H        H    0.54940000  0.87213000  0.04047000  0.00000000
H        H    0.45060000  0.04047000  0.87213000  0.00000000
H        H    0.12787000  0.54940000  0.04047000  0.00000000
H        H    0.54047000  0.37213000  0.95060000  0.00000000
H        H    0.95060000  0.45953000  0.62787000  0.00000000
H        H    0.87213000  0.04047000  0.54940000  0.00000000
H        H    0.04940000  0.62787000  0.45953000  0.00000000
H        H    0.54940000  0.95953000  0.87213000  0.00000000
H        H    0.12787000  0.04047000  0.45060000  0.00000000
H        H    0.04940000  0.37213000  0.54047000  0.00000000
H        H    0.04940000  0.54047000  0.62787000  0.00000000
H        H    0.45060000  0.95953000  0.12787000  0.00000000
H        H    0.12787000  0.95953000  0.54940000  0.00000000
H        H    0.62787000  0.54047000  0.95060000  0.00000000
H        H    0.54047000  0.95060000  0.62787000  0.00000000
H        H    0.95953000  0.12787000  0.45060000  0.00000000
H        H    0.12787000  0.45060000  0.95953000  0.00000000
H        H    0.95060000  0.37213000  0.45953000  0.00000000
H        H    0.62787000  0.45953000  0.04940000  0.00000000
H        H    0.45953000  0.62787000  0.95060000  0.00000000
H        H    0.45060000  0.12787000  0.04047000  0.00000000
H        H    0.95953000  0.87213000  0.54940000  0.00000000
H        H    0.45953000  0.95060000  0.37213000  0.00000000
H        H    0.95060000  0.54047000  0.37213000  0.00000000
H        H    0.37213000  0.54047000  0.04940000  0.00000000
H        H    0.04047000  0.45060000  0.12787000  0.00000000
H        H    0.95953000  0.54940000  0.12787000  0.00000000
H        H    0.54047000  0.04940000  0.37213000  0.00000000
H        H    0.62787000  0.04940000  0.54047000  0.00000000
H        H    0.81138000  0.81534000  0.44453000  0.00000000
H        H    0.31138000  0.68466000  0.05547000  0.00000000
H        H    0.94453000  0.68862000  0.68466000  0.00000000
H        H    0.81534000  0.81138000  0.55547000  0.00000000
H        H    0.94453000  0.31534000  0.68862000  0.00000000
H        H    0.44453000  0.81534000  0.18862000  0.00000000
H        H    0.55547000  0.18862000  0.81534000  0.00000000
H        H    0.68862000  0.31534000  0.05547000  0.00000000
H        H    0.55547000  0.18466000  0.18862000  0.00000000
H        H    0.94453000  0.68466000  0.31138000  0.00000000
H        H    0.18466000  0.18862000  0.55547000  0.00000000
H        H    0.68466000  0.05547000  0.31138000  0.00000000
H        H    0.68466000  0.31138000  0.94453000  0.00000000
H        H    0.18466000  0.55547000  0.81138000  0.00000000
H        H    0.05547000  0.31138000  0.68466000  0.00000000
H        H    0.18466000  0.81138000  0.44453000  0.00000000
H        H    0.18862000  0.55547000  0.18466000  0.00000000
H        H    0.68862000  0.94453000  0.31534000  0.00000000
H        H    0.68466000  0.68862000  0.05547000  0.00000000
H        H    0.68862000  0.68466000  0.94453000  0.00000000
H        H    0.31138000  0.94453000  0.68466000  0.00000000
H        H    0.31534000  0.68862000  0.94453000  0.00000000
H        H    0.44453000  0.18466000  0.81138000  0.00000000
H        H    0.81138000  0.55547000  0.81534000  0.00000000
H        H    0.68466000  0.94453000  0.68862000  0.00000000
H        H    0.18862000  0.81534000  0.55547000  0.00000000
H        H    0.68862000  0.05547000  0.68466000  0.00000000
H        H    0.31534000  0.94453000  0.31138000  0.00000000
H        H    0.18862000  0.18466000  0.44453000  0.00000000
H        H    0.18862000  0.44453000  0.81534000  0.00000000
H        H    0.31138000  0.05547000  0.31534000  0.00000000
H        H    0.31534000  0.05547000  0.68862000  0.00000000
H        H    0.81534000  0.44453000  0.81138000  0.00000000
H        H    0.44453000  0.81138000  0.81534000  0.00000000
H        H    0.05547000  0.31534000  0.31138000  0.00000000
H        H    0.31534000  0.31138000  0.05547000  0.00000000
H        H    0.81138000  0.18466000  0.55547000  0.00000000
H        H    0.81534000  0.55547000  0.18862000  0.00000000
H        H    0.55547000  0.81534000  0.81138000  0.00000000
H        H    0.31138000  0.31534000  0.94453000  0.00000000
H        H    0.05547000  0.68466000  0.68862000  0.00000000
H        H    0.55547000  0.81138000  0.18466000  0.00000000
H        H    0.81138000  0.44453000  0.18466000  0.00000000
H        H    0.18466000  0.44453000  0.18862000  0.00000000
H        H    0.94453000  0.31138000  0.31534000  0.00000000
H        H    0.05547000  0.68862000  0.31534000  0.00000000
H        H    0.44453000  0.18862000  0.18466000  0.00000000
H        H    0.81534000  0.18862000  0.44453000  0.00000000
H        H    0.86897000  0.78526000  0.27225000  0.00000000
H        H    0.36897000  0.71474000  0.22775000  0.00000000
H        H    0.77225000  0.63103000  0.71474000  0.00000000
H        H    0.78526000  0.86897000  0.72775000  0.00000000
H        H    0.77225000  0.28526000  0.63103000  0.00000000
H        H    0.27225000  0.78526000  0.13103000  0.00000000
H        H    0.72775000  0.13103000  0.78526000  0.00000000
H        H    0.63103000  0.28526000  0.22775000  0.00000000
H        H    0.72775000  0.21474000  0.13103000  0.00000000
H        H    0.77225000  0.71474000  0.36897000  0.00000000
H        H    0.21474000  0.13103000  0.72775000  0.00000000
H        H    0.71474000  0.22775000  0.36897000  0.00000000
H        H    0.71474000  0.36897000  0.77225000  0.00000000
H        H    0.21474000  0.72775000  0.86897000  0.00000000
H        H    0.22775000  0.36897000  0.71474000  0.00000000
H        H    0.21474000  0.86897000  0.27225000  0.00000000
H        H    0.13103000  0.72775000  0.21474000  0.00000000
H        H    0.63103000  0.77225000  0.28526000  0.00000000
H        H    0.71474000  0.63103000  0.22775000  0.00000000
H        H    0.63103000  0.71474000  0.77225000  0.00000000
H        H    0.36897000  0.77225000  0.71474000  0.00000000
H        H    0.28526000  0.63103000  0.77225000  0.00000000
H        H    0.27225000  0.21474000  0.86897000  0.00000000
H        H    0.86897000  0.72775000  0.78526000  0.00000000
H        H    0.71474000  0.77225000  0.63103000  0.00000000
H        H    0.13103000  0.78526000  0.72775000  0.00000000
H        H    0.63103000  0.22775000  0.71474000  0.00000000
H        H    0.28526000  0.77225000  0.36897000  0.00000000
H        H    0.13103000  0.21474000  0.27225000  0.00000000
H        H    0.13103000  0.27225000  0.78526000  0.00000000
H        H    0.36897000  0.22775000  0.28526000  0.00000000
H        H    0.28526000  0.22775000  0.63103000  0.00000000
H        H    0.78526000  0.27225000  0.86897000  0.00000000
H        H    0.27225000  0.86897000  0.78526000  0.00000000
H        H    0.22775000  0.28526000  0.36897000  0.00000000
H        H    0.28526000  0.36897000  0.22775000  0.00000000
H        H    0.86897000  0.21474000  0.72775000  0.00000000
H        H    0.78526000  0.72775000  0.13103000  0.00000000
H        H    0.72775000  0.78526000  0.86897000  0.00000000
H        H    0.36897000  0.28526000  0.77225000  0.00000000
H        H    0.22775000  0.71474000  0.63103000  0.00000000
H        H    0.72775000  0.86897000  0.21474000  0.00000000
H        H    0.86897000  0.27225000  0.21474000  0.00000000
H        H    0.21474000  0.27225000  0.13103000  0.00000000
H        H    0.77225000  0.36897000  0.28526000  0.00000000
H        H    0.22775000  0.63103000  0.28526000  0.00000000
H        H    0.27225000  0.13103000  0.21474000  0.00000000
H        H    0.78526000  0.13103000  0.27225000  0.00000000
H        H    0.91935000  0.78372000  0.31432000  0.00000000
H        H    0.41935000  0.71628000  0.18568000  0.00000000
H        H    0.81432000  0.58065000  0.71628000  0.00000000
H        H    0.78372000  0.91935000  0.68568000  0.00000000
H        H    0.81432000  0.28372000  0.58065000  0.00000000
H        H    0.31432000  0.78372000  0.08065000  0.00000000
H        H    0.68568000  0.08065000  0.78372000  0.00000000
H        H    0.58065000  0.28372000  0.18568000  0.00000000
H        H    0.68568000  0.21628000  0.08065000  0.00000000
H        H    0.81432000  0.71628000  0.41935000  0.00000000
H        H    0.21628000  0.08065000  0.68568000  0.00000000
H        H    0.71628000  0.18568000  0.41935000  0.00000000
H        H    0.71628000  0.41935000  0.81432000  0.00000000
H        H    0.21628000  0.68568000  0.91935000  0.00000000
H        H    0.18568000  0.41935000  0.71628000  0.00000000
H        H    0.21628000  0.91935000  0.31432000  0.00000000
H        H    0.08065000  0.68568000  0.21628000  0.00000000
H        H    0.58065000  0.81432000  0.28372000  0.00000000
H        H    0.71628000  0.58065000  0.18568000  0.00000000
H        H    0.58065000  0.71628000  0.81432000  0.00000000
H        H    0.41935000  0.81432000  0.71628000  0.00000000
H        H    0.28372000  0.58065000  0.81432000  0.00000000
H        H    0.31432000  0.21628000  0.91935000  0.00000000
H        H    0.91935000  0.68568000  0.78372000  0.00000000
H        H    0.71628000  0.81432000  0.58065000  0.00000000
H        H    0.08065000  0.78372000  0.68568000  0.00000000
H        H    0.58065000  0.18568000  0.71628000  0.00000000
H        H    0.28372000  0.81432000  0.41935000  0.00000000
H        H    0.08065000  0.21628000  0.31432000  0.00000000
H        H    0.08065000  0.31432000  0.78372000  0.00000000
H        H    0.41935000  0.18568000  0.28372000  0.00000000
H        H    0.28372000  0.18568000  0.58065000  0.00000000
H        H    0.78372000  0.31432000  0.91935000  0.00000000
H        H    0.31432000  0.91935000  0.78372000  0.00000000
H        H    0.18568000  0.28372000  0.41935000  0.00000000
H        H    0.28372000  0.41935000  0.18568000  0.00000000
H        H    0.91935000  0.21628000  0.68568000  0.00000000
H        H    0.78372000  0.68568000  0.08065000  0.00000000
H        H    0.68568000  0.78372000  0.91935000  0.00000000
H        H    0.41935000  0.28372000  0.81432000  0.00000000
H        H    0.18568000  0.71628000  0.58065000  0.00000000
H        H    0.68568000  0.91935000  0.21628000  0.00000000
H        H    0.91935000  0.31432000  0.21628000  0.00000000
H        H    0.21628000  0.31432000  0.08065000  0.00000000
H        H    0.81432000  0.41935000  0.28372000  0.00000000
H        H    0.18568000  0.58065000  0.28372000  0.00000000
H        H    0.31432000  0.08065000  0.21628000  0.00000000
H        H    0.78372000  0.08065000  0.31432000  0.00000000
H        H    0.90433000  0.83949000  0.28311000  0.00000000
H        H    0.40433000  0.66051000  0.21689000  0.00000000
H        H    0.78311000  0.59567000  0.66051000  0.00000000
H        H    0.83949000  0.90433000  0.71689000  0.00000000
H        H    0.78311000  0.33949000  0.59567000  0.00000000
H        H    0.28311000  0.83949000  0.09567000  0.00000000
H        H    0.71689000  0.09567000  0.83949000  0.00000000
H        H    0.59567000  0.33949000  0.21689000  0.00000000
H        H    0.71689000  0.16051000  0.09567000  0.00000000
H        H    0.78311000  0.66051000  0.40433000  0.00000000
H        H    0.16051000  0.09567000  0.71689000  0.00000000
H        H    0.66051000  0.21689000  0.40433000  0.00000000
H        H    0.66051000  0.40433000  0.78311000  0.00000000
H        H    0.16051000  0.71689000  0.90433000  0.00000000
H        H    0.21689000  0.40433000  0.66051000  0.00000000
H        H    0.16051000  0.90433000  0.28311000  0.00000000
H        H    0.09567000  0.71689000  0.16051000  0.00000000
H        H    0.59567000  0.78311000  0.33949000  0.00000000
H        H    0.66051000  0.59567000  0.21689000  0.00000000
H        H    0.59567000  0.66051000  0.78311000  0.00000000
H        H    0.40433000  0.78311000  0.66051000  0.00000000
H        H    0.33949000  0.59567000  0.78311000  0.00000000
H        H    0.28311000  0.16051000  0.90433000  0.00000000
H        H    0.90433000  0.71689000  0.83949000  0.00000000
H        H    0.66051000  0.78311000  0.59567000  0.00000000
H        H    0.09567000  0.83949000  0.71689000  0.00000000
H        H    0.59567000  0.21689000  0.66051000  0.00000000
H        H    0.33949000  0.78311000  0.40433000  0.00000000
H        H    0.09567000  0.16051000  0.28311000  0.00000000
H        H    0.09567000  0.28311000  0.83949000  0.00000000
H        H    0.40433000  0.21689000  0.33949000  0.00000000
H        H    0.33949000  0.21689000  0.59567000  0.00000000
H        H    0.83949000  0.28311000  0.90433000  0.00000000
H        H    0.28311000  0.90433000  0.83949000  0.00000000
H        H    0.21689000  0.33949000  0.40433000  0.00000000
H        H    0.33949000  0.40433000  0.21689000  0.00000000
H        H    0.90433000  0.16051000  0.71689000  0.00000000
H        H    0.83949000  0.71689000  0.09567000  0.00000000
H        H    0.71689000  0.83949000  0.90433000  0.00000000
H        H    0.40433000  0.33949000  0.78311000  0.00000000
H        H    0.21689000  0.66051000  0.59567000  0.00000000
H        H    0.71689000  0.90433000  0.16051000  0.00000000
H        H    0.90433000  0.28311000  0.16051000  0.00000000
H        H    0.16051000  0.28311000  0.09567000  0.00000000
H        H    0.78311000  0.40433000  0.33949000  0.00000000
H        H    0.21689000  0.59567000  0.33949000  0.00000000
H        H    0.28311000  0.09567000  0.16051000  0.00000000
H        H    0.83949000  0.09567000  0.28311000  0.00000000
H        H    0.82927000  0.87708000  0.26196000  0.00000000
H        H    0.32927000  0.62292000  0.23804000  0.00000000
H        H    0.76196000  0.67073000  0.62292000  0.00000000
H        H    0.87708000  0.82927000  0.73804000  0.00000000
H        H    0.76196000  0.37708000  0.67073000  0.00000000
H        H    0.26196000  0.87708000  0.17073000  0.00000000
H        H    0.73804000  0.17073000  0.87708000  0.00000000
H        H    0.67073000  0.37708000  0.23804000  0.00000000
H        H    0.73804000  0.12292000  0.17073000  0.00000000
H        H    0.76196000  0.62292000  0.32927000  0.00000000
H        H    0.12292000  0.17073000  0.73804000  0.00000000
H        H    0.62292000  0.23804000  0.32927000  0.00000000
H        H    0.62292000  0.32927000  0.76196000  0.00000000
H        H    0.12292000  0.73804000  0.82927000  0.00000000
H        H    0.23804000  0.32927000  0.62292000  0.00000000
H        H    0.12292000  0.82927000  0.26196000  0.00000000
H        H    0.17073000  0.73804000  0.12292000  0.00000000
H        H    0.67073000  0.76196000  0.37708000  0.00000000
H        H    0.62292000  0.67073000  0.23804000  0.00000000
H        H    0.67073000  0.62292000  0.76196000  0.00000000
H        H    0.32927000  0.76196000  0.62292000  0.00000000
H        H    0.37708000  0.67073000  0.76196000  0.00000000
H        H    0.26196000  0.12292000  0.82927000  0.00000000
H        H    0.82927000  0.73804000  0.87708000  0.00000000
H        H    0.62292000  0.76196000  0.67073000  0.00000000
H        H    0.17073000  0.87708000  0.73804000  0.00000000
H        H    0.67073000  0.23804000  0.62292000  0.00000000
H        H    0.37708000  0.76196000  0.32927000  0.00000000
H        H    0.17073000  0.12292000  0.26196000  0.00000000
H        H    0.17073000  0.26196000  0.87708000  0.00000000
H        H    0.32927000  0.23804000  0.37708000  0.00000000
H        H    0.37708000  0.23804000  0.67073000  0.00000000
H        H    0.87708000  0.26196000  0.82927000  0.00000000
H        H    0.26196000  0.82927000  0.87708000  0.00000000
H        H    0.23804000  0.37708000  0.32927000  0.00000000
H        H    0.37708000  0.32927000  0.23804000  0.00000000
H        H    0.82927000  0.12292000  0.73804000  0.00000000
H        H    0.87708000  0.73804000  0.17073000  0.00000000
H        H    0.73804000  0.87708000  0.82927000  0.00000000
H        H    0.32927000  0.37708000  0.76196000  0.00000000
H        H    0.23804000  0.62292000  0.67073000  0.00000000
H        H    0.73804000  0.82927000  0.12292000  0.00000000
H        H    0.82927000  0.26196000  0.12292000  0.00000000
H        H    0.12292000  0.26196000  0.17073000  0.00000000
H        H    0.76196000  0.32927000  0.37708000  0.00000000
H        H    0.23804000  0.67073000  0.37708000  0.00000000
H        H    0.26196000  0.17073000  0.12292000  0.00000000
H        H    0.87708000  0.17073000  0.26196000  0.00000000
Zn       Zn   0.39860000  0.75000000  0.10140000  0.00000000
Zn       Zn   0.60140000  0.25000000  0.10140000  0.00000000
Zn       Zn   0.89860000  0.75000000  0.39860000  0.00000000
Zn       Zn   0.25000000  0.60140000  0.89860000  0.00000000
Zn       Zn   0.89860000  0.60140000  0.75000000  0.00000000
Zn       Zn   0.75000000  0.89860000  0.60140000  0.00000000
Zn       Zn   0.60140000  0.10140000  0.75000000  0.00000000
Zn       Zn   0.25000000  0.89860000  0.39860000  0.00000000
Zn       Zn   0.10140000  0.39860000  0.75000000  0.00000000
Zn       Zn   0.25000000  0.10140000  0.60140000  0.00000000
Zn       Zn   0.75000000  0.39860000  0.89860000  0.00000000
Zn       Zn   0.39860000  0.89860000  0.75000000  0.00000000
Zn       Zn   0.10140000  0.25000000  0.39860000  0.00000000
Zn       Zn   0.89860000  0.25000000  0.60140000  0.00000000
Zn       Zn   0.75000000  0.60140000  0.10140000  0.00000000
Zn       Zn   0.60140000  0.75000000  0.89860000  0.00000000
Zn       Zn   0.39860000  0.25000000  0.89860000  0.00000000
Zn       Zn   0.10140000  0.75000000  0.60140000  0.00000000
Zn       Zn   0.60140000  0.89860000  0.25000000  0.00000000
Zn       Zn   0.25000000  0.39860000  0.10140000  0.00000000
Zn       Zn   0.89860000  0.39860000  0.25000000  0.00000000
Zn       Zn   0.10140000  0.60140000  0.25000000  0.00000000
Zn       Zn   0.39860000  0.10140000  0.25000000  0.00000000
Zn       Zn   0.75000000  0.10140000  0.39860000  0.00000000
Zn       Zn   0.75000000  0.89590000  0.39590000  0.00000000
Zn       Zn   0.60410000  0.75000000  0.10410000  0.00000000
Zn       Zn   0.39590000  0.10410000  0.75000000  0.00000000
Zn       Zn   0.60410000  0.25000000  0.89590000  0.00000000
Zn       Zn   0.89590000  0.39590000  0.75000000  0.00000000
Zn       Zn   0.10410000  0.75000000  0.39590000  0.00000000
Zn       Zn   0.25000000  0.10410000  0.39590000  0.00000000
Zn       Zn   0.10410000  0.25000000  0.60410000  0.00000000
Zn       Zn   0.10410000  0.60410000  0.75000000  0.00000000
Zn       Zn   0.25000000  0.89590000  0.60410000  0.00000000
Zn       Zn   0.75000000  0.60410000  0.89590000  0.00000000
Zn       Zn   0.60410000  0.89590000  0.75000000  0.00000000
Zn       Zn   0.25000000  0.39590000  0.89590000  0.00000000
Zn       Zn   0.89590000  0.25000000  0.39590000  0.00000000
Zn       Zn   0.75000000  0.39590000  0.10410000  0.00000000
Zn       Zn   0.39590000  0.75000000  0.89590000  0.00000000
Zn       Zn   0.39590000  0.25000000  0.10410000  0.00000000
Zn       Zn   0.89590000  0.75000000  0.60410000  0.00000000
Zn       Zn   0.39590000  0.89590000  0.25000000  0.00000000
Zn       Zn   0.25000000  0.60410000  0.10410000  0.00000000
Zn       Zn   0.10410000  0.39590000  0.25000000  0.00000000
Zn       Zn   0.89590000  0.60410000  0.25000000  0.00000000
Zn       Zn   0.60410000  0.10410000  0.25000000  0.00000000
Zn       Zn   0.75000000  0.10410000  0.60410000  0.00000000
