data_ZIF-96

_cell_length_a  24.55736276
_cell_length_b  24.55736276
_cell_length_c  24.55736276
_cell_angle_alpha  109.47122063
_cell_angle_beta  109.47122063
_cell_angle_gamma  109.47122063


_symmetry_space_group_name_Hall ' P 1'
_symmetry_space_group_name_H-M  'P 1'
_symmetry_Int_Tables_number     1

loop_
_atom_site_label
_atom_site_type_symbol
_atom_site_fract_x
_atom_site_fract_y
_atom_site_fract_z
_atom_site_charge
C        C    0.12699000  0.74729000  0.38140000  0.00000000
C        C    0.63411000  0.25271000  0.37970000  0.00000000
C        C    0.37970000  0.63411000  0.25271000  0.00000000
C        C    0.87301000  0.61860000  0.25271000  0.00000000
C        C    0.74559000  0.12699000  0.37970000  0.00000000
C        C    0.38140000  0.12699000  0.74729000  0.00000000
C        C    0.36589000  0.74559000  0.61860000  0.00000000
C        C    0.25441000  0.63411000  0.38140000  0.00000000
C        C    0.25271000  0.87301000  0.61860000  0.00000000
C        C    0.12699000  0.37970000  0.74559000  0.00000000
C        C    0.74559000  0.61860000  0.36589000  0.00000000
C        C    0.36589000  0.62030000  0.74729000  0.00000000
C        C    0.62030000  0.87301000  0.25441000  0.00000000
C        C    0.61860000  0.25271000  0.87301000  0.00000000
C        C    0.62030000  0.74729000  0.36589000  0.00000000
C        C    0.87301000  0.25441000  0.62030000  0.00000000
C        C    0.38140000  0.25441000  0.63411000  0.00000000
C        C    0.63411000  0.38140000  0.25441000  0.00000000
C        C    0.37970000  0.74559000  0.12699000  0.00000000
C        C    0.74729000  0.38140000  0.12699000  0.00000000
C        C    0.25441000  0.62030000  0.87301000  0.00000000
C        C    0.25271000  0.37970000  0.63411000  0.00000000
C        C    0.61860000  0.36589000  0.74559000  0.00000000
C        C    0.74729000  0.36589000  0.62030000  0.00000000
C        C    0.22010000  0.83766000  0.43398000  0.00000000
C        C    0.59632000  0.16234000  0.38244000  0.00000000
C        C    0.38244000  0.59632000  0.16234000  0.00000000
C        C    0.77990000  0.56602000  0.16234000  0.00000000
C        C    0.78612000  0.22010000  0.38244000  0.00000000
C        C    0.43398000  0.22010000  0.83766000  0.00000000
C        C    0.40368000  0.78612000  0.56602000  0.00000000
C        C    0.21388000  0.59632000  0.43398000  0.00000000
C        C    0.16234000  0.77990000  0.56602000  0.00000000
C        C    0.22010000  0.38244000  0.78612000  0.00000000
C        C    0.78612000  0.56602000  0.40368000  0.00000000
C        C    0.40368000  0.61756000  0.83766000  0.00000000
C        C    0.61756000  0.77990000  0.21388000  0.00000000
C        C    0.56602000  0.16234000  0.77990000  0.00000000
C        C    0.61756000  0.83766000  0.40368000  0.00000000
C        C    0.77990000  0.21388000  0.61756000  0.00000000
C        C    0.43398000  0.21388000  0.59632000  0.00000000
C        C    0.59632000  0.43398000  0.21388000  0.00000000
C        C    0.38244000  0.78612000  0.22010000  0.00000000
C        C    0.83766000  0.43398000  0.22010000  0.00000000
C        C    0.21388000  0.61756000  0.77990000  0.00000000
C        C    0.16234000  0.38244000  0.59632000  0.00000000
C        C    0.56602000  0.40368000  0.78612000  0.00000000
C        C    0.83766000  0.40368000  0.61756000  0.00000000
C        C    0.27724000  0.90033000  0.48831000  0.00000000
C        C    0.58798000  0.09967000  0.37691000  0.00000000
C        C    0.37691000  0.58798000  0.09967000  0.00000000
C        C    0.72276000  0.51169000  0.09967000  0.00000000
C        C    0.78893000  0.27724000  0.37691000  0.00000000
C        C    0.48831000  0.27724000  0.90033000  0.00000000
C        C    0.41202000  0.78893000  0.51169000  0.00000000
C        C    0.21107000  0.58798000  0.48831000  0.00000000
C        C    0.09967000  0.72276000  0.51169000  0.00000000
C        C    0.27724000  0.37691000  0.78893000  0.00000000
C        C    0.78893000  0.51169000  0.41202000  0.00000000
C        C    0.41202000  0.62309000  0.90033000  0.00000000
C        C    0.62309000  0.72276000  0.21107000  0.00000000
C        C    0.51169000  0.09967000  0.72276000  0.00000000
C        C    0.62309000  0.90033000  0.41202000  0.00000000
C        C    0.72276000  0.21107000  0.62309000  0.00000000
C        C    0.48831000  0.21107000  0.58798000  0.00000000
C        C    0.58798000  0.48831000  0.21107000  0.00000000
C        C    0.37691000  0.78893000  0.27724000  0.00000000
C        C    0.90033000  0.48831000  0.27724000  0.00000000
C        C    0.21107000  0.62309000  0.72276000  0.00000000
C        C    0.09967000  0.37691000  0.58798000  0.00000000
C        C    0.51169000  0.41202000  0.78893000  0.00000000
C        C    0.90033000  0.41202000  0.62309000  0.00000000
C        C    0.22113000  0.78921000  0.38700000  0.00000000
C        C    0.59779000  0.21079000  0.43192000  0.00000000
C        C    0.43192000  0.59779000  0.21079000  0.00000000
C        C    0.77887000  0.61300000  0.21079000  0.00000000
C        C    0.83413000  0.22113000  0.43192000  0.00000000
C        C    0.38700000  0.22113000  0.78921000  0.00000000
C        C    0.40221000  0.83413000  0.61300000  0.00000000
C        C    0.16587000  0.59779000  0.38700000  0.00000000
C        C    0.21079000  0.77887000  0.61300000  0.00000000
C        C    0.22113000  0.43192000  0.83413000  0.00000000
C        C    0.83413000  0.61300000  0.40221000  0.00000000
C        C    0.40221000  0.56808000  0.78921000  0.00000000
C        C    0.56808000  0.77887000  0.16587000  0.00000000
C        C    0.61300000  0.21079000  0.77887000  0.00000000
C        C    0.56808000  0.78921000  0.40221000  0.00000000
C        C    0.77887000  0.16587000  0.56808000  0.00000000
C        C    0.38700000  0.16587000  0.59779000  0.00000000
C        C    0.59779000  0.38700000  0.16587000  0.00000000
C        C    0.43192000  0.83413000  0.22113000  0.00000000
C        C    0.78921000  0.38700000  0.22113000  0.00000000
C        C    0.16587000  0.56808000  0.77887000  0.00000000
C        C    0.21079000  0.43192000  0.59779000  0.00000000
C        C    0.61300000  0.40221000  0.83413000  0.00000000
C        C    0.78921000  0.40221000  0.56808000  0.00000000
C        C    0.99932000  0.77137000  0.41375000  0.00000000
C        C    0.64238000  0.22863000  0.22795000  0.00000000
C        C    0.22795000  0.64238000  0.22863000  0.00000000
C        C    0.00068000  0.58625000  0.22863000  0.00000000
C        C    0.58557000  0.99932000  0.22795000  0.00000000
C        C    0.41375000  0.99932000  0.77137000  0.00000000
C        C    0.35762000  0.58557000  0.58625000  0.00000000
C        C    0.41443000  0.64238000  0.41375000  0.00000000
C        C    0.22863000  0.00068000  0.58625000  0.00000000
C        C    0.99932000  0.22795000  0.58557000  0.00000000
C        C    0.58557000  0.58625000  0.35762000  0.00000000
C        C    0.35762000  0.77205000  0.77137000  0.00000000
C        C    0.77205000  0.00068000  0.41443000  0.00000000
C        C    0.58625000  0.22863000  0.00068000  0.00000000
C        C    0.77205000  0.77137000  0.35762000  0.00000000
C        C    0.00068000  0.41443000  0.77205000  0.00000000
C        C    0.41375000  0.41443000  0.64238000  0.00000000
C        C    0.64238000  0.41375000  0.41443000  0.00000000
C        C    0.22795000  0.58557000  0.99932000  0.00000000
C        C    0.77137000  0.41375000  0.99932000  0.00000000
C        C    0.41443000  0.77205000  0.00068000  0.00000000
C        C    0.22863000  0.22795000  0.64238000  0.00000000
C        C    0.58625000  0.35762000  0.58557000  0.00000000
C        C    0.77137000  0.35762000  0.77205000  0.00000000
C        C    0.03225000  0.83649000  0.51498000  0.00000000
C        C    0.67849000  0.16351000  0.19576000  0.00000000
C        C    0.19576000  0.67849000  0.16351000  0.00000000
C        C    0.96775000  0.48502000  0.16351000  0.00000000
C        C    0.51727000  0.03225000  0.19576000  0.00000000
C        C    0.51498000  0.03225000  0.83649000  0.00000000
C        C    0.32151000  0.51727000  0.48502000  0.00000000
C        C    0.48273000  0.67849000  0.51498000  0.00000000
C        C    0.16351000  0.96775000  0.48502000  0.00000000
C        C    0.03225000  0.19576000  0.51727000  0.00000000
C        C    0.51727000  0.48502000  0.32151000  0.00000000
C        C    0.32151000  0.80424000  0.83649000  0.00000000
C        C    0.80424000  0.96775000  0.48273000  0.00000000
C        C    0.48502000  0.16351000  0.96775000  0.00000000
C        C    0.80424000  0.83649000  0.32151000  0.00000000
C        C    0.96775000  0.48273000  0.80424000  0.00000000
C        C    0.51498000  0.48273000  0.67849000  0.00000000
C        C    0.67849000  0.51498000  0.48273000  0.00000000
C        C    0.19576000  0.51727000  0.03225000  0.00000000
C        C    0.83649000  0.51498000  0.03225000  0.00000000
C        C    0.48273000  0.80424000  0.96775000  0.00000000
C        C    0.16351000  0.19576000  0.67849000  0.00000000
C        C    0.48502000  0.32151000  0.51727000  0.00000000
C        C    0.83649000  0.32151000  0.80424000  0.00000000
C        C    0.96391000  0.80138000  0.48059000  0.00000000
C        C    0.67921000  0.19862000  0.16253000  0.00000000
C        C    0.16253000  0.67921000  0.19862000  0.00000000
C        C    0.03609000  0.51941000  0.19862000  0.00000000
C        C    0.48332000  0.96391000  0.16253000  0.00000000
C        C    0.48059000  0.96391000  0.80138000  0.00000000
C        C    0.32079000  0.48332000  0.51941000  0.00000000
C        C    0.51668000  0.67921000  0.48059000  0.00000000
C        C    0.19862000  0.03609000  0.51941000  0.00000000
C        C    0.96391000  0.16253000  0.48332000  0.00000000
C        C    0.48332000  0.51941000  0.32079000  0.00000000
C        C    0.32079000  0.83747000  0.80138000  0.00000000
C        C    0.83747000  0.03609000  0.51668000  0.00000000
C        C    0.51941000  0.19862000  0.03609000  0.00000000
C        C    0.83747000  0.80138000  0.32079000  0.00000000
C        C    0.03609000  0.51668000  0.83747000  0.00000000
C        C    0.48059000  0.51668000  0.67921000  0.00000000
C        C    0.67921000  0.48059000  0.51668000  0.00000000
C        C    0.16253000  0.48332000  0.96391000  0.00000000
C        C    0.80138000  0.48059000  0.96391000  0.00000000
C        C    0.51668000  0.83747000  0.03609000  0.00000000
C        C    0.19862000  0.16253000  0.67921000  0.00000000
C        C    0.51941000  0.32079000  0.48332000  0.00000000
C        C    0.80138000  0.32079000  0.83747000  0.00000000
C        C    0.92019000  0.80716000  0.50633000  0.00000000
C        C    0.69917000  0.19284000  0.11303000  0.00000000
C        C    0.11303000  0.69917000  0.19284000  0.00000000
C        C    0.07981000  0.49367000  0.19284000  0.00000000
C        C    0.41386000  0.92019000  0.11303000  0.00000000
C        C    0.50633000  0.92019000  0.80716000  0.00000000
C        C    0.30083000  0.41386000  0.49367000  0.00000000
C        C    0.58614000  0.69917000  0.50633000  0.00000000
C        C    0.19284000  0.07981000  0.49367000  0.00000000
C        C    0.92019000  0.11303000  0.41386000  0.00000000
C        C    0.41386000  0.49367000  0.30083000  0.00000000
C        C    0.30083000  0.88697000  0.80716000  0.00000000
C        C    0.88697000  0.07981000  0.58614000  0.00000000
C        C    0.49367000  0.19284000  0.07981000  0.00000000
C        C    0.88697000  0.80716000  0.30083000  0.00000000
C        C    0.07981000  0.58614000  0.88697000  0.00000000
C        C    0.50633000  0.58614000  0.69917000  0.00000000
C        C    0.69917000  0.50633000  0.58614000  0.00000000
C        C    0.11303000  0.41386000  0.92019000  0.00000000
C        C    0.80716000  0.50633000  0.92019000  0.00000000
C        C    0.58614000  0.88697000  0.07981000  0.00000000
C        C    0.19284000  0.11303000  0.69917000  0.00000000
C        C    0.49367000  0.30083000  0.41386000  0.00000000
C        C    0.80716000  0.30083000  0.88697000  0.00000000
N        N    0.16087000  0.81161000  0.43078000  0.00000000
N        N    0.61917000  0.18839000  0.34926000  0.00000000
N        N    0.34926000  0.61917000  0.18839000  0.00000000
N        N    0.83913000  0.56922000  0.18839000  0.00000000
N        N    0.73009000  0.16087000  0.34926000  0.00000000
N        N    0.43078000  0.16087000  0.81161000  0.00000000
N        N    0.38083000  0.73009000  0.56922000  0.00000000
N        N    0.26991000  0.61917000  0.43078000  0.00000000
N        N    0.18839000  0.83913000  0.56922000  0.00000000
N        N    0.16087000  0.34926000  0.73009000  0.00000000
N        N    0.73009000  0.56922000  0.38083000  0.00000000
N        N    0.38083000  0.65074000  0.81161000  0.00000000
N        N    0.65074000  0.83913000  0.26991000  0.00000000
N        N    0.56922000  0.18839000  0.83913000  0.00000000
N        N    0.65074000  0.81161000  0.38083000  0.00000000
N        N    0.83913000  0.26991000  0.65074000  0.00000000
N        N    0.43078000  0.26991000  0.61917000  0.00000000
N        N    0.61917000  0.43078000  0.26991000  0.00000000
N        N    0.34926000  0.73009000  0.16087000  0.00000000
N        N    0.81161000  0.43078000  0.16087000  0.00000000
N        N    0.26991000  0.65074000  0.83913000  0.00000000
N        N    0.18839000  0.34926000  0.61917000  0.00000000
N        N    0.56922000  0.38083000  0.73009000  0.00000000
N        N    0.81161000  0.38083000  0.65074000  0.00000000
N        N    0.27927000  0.79367000  0.38382000  0.00000000
N        N    0.59015000  0.20633000  0.48560000  0.00000000
N        N    0.48560000  0.59015000  0.20633000  0.00000000
N        N    0.72073000  0.61618000  0.20633000  0.00000000
N        N    0.89545000  0.27927000  0.48560000  0.00000000
N        N    0.38382000  0.27927000  0.79367000  0.00000000
N        N    0.40985000  0.89545000  0.61618000  0.00000000
N        N    0.10455000  0.59015000  0.38382000  0.00000000
N        N    0.20633000  0.72073000  0.61618000  0.00000000
N        N    0.27927000  0.48560000  0.89545000  0.00000000
N        N    0.89545000  0.61618000  0.40985000  0.00000000
N        N    0.40985000  0.51440000  0.79367000  0.00000000
N        N    0.51440000  0.72073000  0.10455000  0.00000000
N        N    0.61618000  0.20633000  0.72073000  0.00000000
N        N    0.51440000  0.79367000  0.40985000  0.00000000
N        N    0.72073000  0.10455000  0.51440000  0.00000000
N        N    0.38382000  0.10455000  0.59015000  0.00000000
N        N    0.59015000  0.38382000  0.10455000  0.00000000
N        N    0.48560000  0.89545000  0.27927000  0.00000000
N        N    0.79367000  0.38382000  0.27927000  0.00000000
N        N    0.10455000  0.51440000  0.72073000  0.00000000
N        N    0.20633000  0.48560000  0.59015000  0.00000000
N        N    0.61618000  0.40985000  0.89545000  0.00000000
N        N    0.79367000  0.40985000  0.51440000  0.00000000
N        N    0.16251000  0.73219000  0.35304000  0.00000000
N        N    0.62085000  0.26781000  0.43032000  0.00000000
N        N    0.43032000  0.62085000  0.26781000  0.00000000
N        N    0.83749000  0.64696000  0.26781000  0.00000000
N        N    0.80947000  0.16251000  0.43032000  0.00000000
N        N    0.35304000  0.16251000  0.73219000  0.00000000
N        N    0.37915000  0.80947000  0.64696000  0.00000000
N        N    0.19053000  0.62085000  0.35304000  0.00000000
N        N    0.26781000  0.83749000  0.64696000  0.00000000
N        N    0.16251000  0.43032000  0.80947000  0.00000000
N        N    0.80947000  0.64696000  0.37915000  0.00000000
N        N    0.37915000  0.56968000  0.73219000  0.00000000
N        N    0.56968000  0.83749000  0.19053000  0.00000000
N        N    0.64696000  0.26781000  0.83749000  0.00000000
N        N    0.56968000  0.73219000  0.37915000  0.00000000
N        N    0.83749000  0.19053000  0.56968000  0.00000000
N        N    0.35304000  0.19053000  0.62085000  0.00000000
N        N    0.62085000  0.35304000  0.19053000  0.00000000
N        N    0.43032000  0.80947000  0.16251000  0.00000000
N        N    0.73219000  0.35304000  0.16251000  0.00000000
N        N    0.19053000  0.56968000  0.83749000  0.00000000
N        N    0.26781000  0.43032000  0.62085000  0.00000000
N        N    0.64696000  0.37915000  0.80947000  0.00000000
N        N    0.73219000  0.37915000  0.56968000  0.00000000
N        N    0.94288000  0.76006000  0.41682000  0.00000000
N        N    0.65676000  0.23994000  0.18282000  0.00000000
N        N    0.18282000  0.65676000  0.23994000  0.00000000
N        N    0.05712000  0.58318000  0.23994000  0.00000000
N        N    0.52606000  0.94288000  0.18282000  0.00000000
N        N    0.41682000  0.94288000  0.76006000  0.00000000
N        N    0.34324000  0.52606000  0.58318000  0.00000000
N        N    0.47394000  0.65676000  0.41682000  0.00000000
N        N    0.23994000  0.05712000  0.58318000  0.00000000
N        N    0.94288000  0.18282000  0.52606000  0.00000000
N        N    0.52606000  0.58318000  0.34324000  0.00000000
N        N    0.34324000  0.81718000  0.76006000  0.00000000
N        N    0.81718000  0.05712000  0.47394000  0.00000000
N        N    0.58318000  0.23994000  0.05712000  0.00000000
N        N    0.81718000  0.76006000  0.34324000  0.00000000
N        N    0.05712000  0.47394000  0.81718000  0.00000000
N        N    0.41682000  0.47394000  0.65676000  0.00000000
N        N    0.65676000  0.41682000  0.47394000  0.00000000
N        N    0.18282000  0.52606000  0.94288000  0.00000000
N        N    0.76006000  0.41682000  0.94288000  0.00000000
N        N    0.47394000  0.81718000  0.05712000  0.00000000
N        N    0.23994000  0.18282000  0.65676000  0.00000000
N        N    0.58318000  0.34324000  0.52606000  0.00000000
N        N    0.76006000  0.34324000  0.81718000  0.00000000
N        N    0.05504000  0.81777000  0.47347000  0.00000000
N        N    0.65570000  0.18223000  0.23727000  0.00000000
N        N    0.23727000  0.65570000  0.18223000  0.00000000
N        N    0.94496000  0.52653000  0.18223000  0.00000000
N        N    0.58157000  0.05504000  0.23727000  0.00000000
N        N    0.47347000  0.05504000  0.81777000  0.00000000
N        N    0.34430000  0.58157000  0.52653000  0.00000000
N        N    0.41843000  0.65570000  0.47347000  0.00000000
N        N    0.18223000  0.94496000  0.52653000  0.00000000
N        N    0.05504000  0.23727000  0.58157000  0.00000000
N        N    0.58157000  0.52653000  0.34430000  0.00000000
N        N    0.34430000  0.76273000  0.81777000  0.00000000
N        N    0.76273000  0.94496000  0.41843000  0.00000000
N        N    0.52653000  0.18223000  0.94496000  0.00000000
N        N    0.76273000  0.81777000  0.34430000  0.00000000
N        N    0.94496000  0.41843000  0.76273000  0.00000000
N        N    0.47347000  0.41843000  0.65570000  0.00000000
N        N    0.65570000  0.47347000  0.41843000  0.00000000
N        N    0.23727000  0.58157000  0.05504000  0.00000000
N        N    0.81777000  0.47347000  0.05504000  0.00000000
N        N    0.41843000  0.76273000  0.94496000  0.00000000
N        N    0.18223000  0.23727000  0.65570000  0.00000000
N        N    0.52653000  0.34430000  0.58157000  0.00000000
N        N    0.81777000  0.34430000  0.76273000  0.00000000
N        N    0.07408000  0.88596000  0.58398000  0.00000000
N        N    0.69802000  0.11404000  0.18812000  0.00000000
N        N    0.18812000  0.69802000  0.11404000  0.00000000
N        N    0.92592000  0.41602000  0.11404000  0.00000000
N        N    0.49010000  0.07408000  0.18812000  0.00000000
N        N    0.58398000  0.07408000  0.88596000  0.00000000
N        N    0.30198000  0.49010000  0.41602000  0.00000000
N        N    0.50990000  0.69802000  0.58398000  0.00000000
N        N    0.11404000  0.92592000  0.41602000  0.00000000
N        N    0.07408000  0.18812000  0.49010000  0.00000000
N        N    0.49010000  0.41602000  0.30198000  0.00000000
N        N    0.30198000  0.81188000  0.88596000  0.00000000
N        N    0.81188000  0.92592000  0.50990000  0.00000000
N        N    0.41602000  0.11404000  0.92592000  0.00000000
N        N    0.81188000  0.88596000  0.30198000  0.00000000
N        N    0.92592000  0.50990000  0.81188000  0.00000000
N        N    0.58398000  0.50990000  0.69802000  0.00000000
N        N    0.69802000  0.58398000  0.50990000  0.00000000
N        N    0.18812000  0.49010000  0.07408000  0.00000000
N        N    0.88596000  0.58398000  0.07408000  0.00000000
N        N    0.50990000  0.81188000  0.92592000  0.00000000
N        N    0.11404000  0.18812000  0.69802000  0.00000000
N        N    0.41602000  0.30198000  0.49010000  0.00000000
N        N    0.88596000  0.30198000  0.81188000  0.00000000
N        N    0.32360000  0.95051000  0.53209000  0.00000000
N        N    0.58158000  0.04949000  0.37309000  0.00000000
N        N    0.37309000  0.58158000  0.04949000  0.00000000
N        N    0.67640000  0.46791000  0.04949000  0.00000000
N        N    0.79151000  0.32360000  0.37309000  0.00000000
N        N    0.53209000  0.32360000  0.95051000  0.00000000
N        N    0.41842000  0.79151000  0.46791000  0.00000000
N        N    0.20849000  0.58158000  0.53209000  0.00000000
N        N    0.04949000  0.67640000  0.46791000  0.00000000
N        N    0.32360000  0.37309000  0.79151000  0.00000000
N        N    0.79151000  0.46791000  0.41842000  0.00000000
N        N    0.41842000  0.62691000  0.95051000  0.00000000
N        N    0.62691000  0.67640000  0.20849000  0.00000000
N        N    0.46791000  0.04949000  0.67640000  0.00000000
N        N    0.62691000  0.95051000  0.41842000  0.00000000
N        N    0.67640000  0.20849000  0.62691000  0.00000000
N        N    0.53209000  0.20849000  0.58158000  0.00000000
N        N    0.58158000  0.53209000  0.20849000  0.00000000
N        N    0.37309000  0.79151000  0.32360000  0.00000000
N        N    0.95051000  0.53209000  0.32360000  0.00000000
N        N    0.20849000  0.62691000  0.67640000  0.00000000
N        N    0.04949000  0.37309000  0.58158000  0.00000000
N        N    0.46791000  0.41842000  0.79151000  0.00000000
N        N    0.95051000  0.41842000  0.62691000  0.00000000
N        N    0.88488000  0.81173000  0.52691000  0.00000000
N        N    0.71518000  0.18827000  0.07315000  0.00000000
N        N    0.07315000  0.71518000  0.18827000  0.00000000
N        N    0.11512000  0.47309000  0.18827000  0.00000000
N        N    0.35797000  0.88488000  0.07315000  0.00000000
N        N    0.52691000  0.88488000  0.81173000  0.00000000
N        N    0.28482000  0.35797000  0.47309000  0.00000000
N        N    0.64203000  0.71518000  0.52691000  0.00000000
N        N    0.18827000  0.11512000  0.47309000  0.00000000
N        N    0.88488000  0.07315000  0.35797000  0.00000000
N        N    0.35797000  0.47309000  0.28482000  0.00000000
N        N    0.28482000  0.92685000  0.81173000  0.00000000
N        N    0.92685000  0.11512000  0.64203000  0.00000000
N        N    0.47309000  0.18827000  0.11512000  0.00000000
N        N    0.92685000  0.81173000  0.28482000  0.00000000
N        N    0.11512000  0.64203000  0.92685000  0.00000000
N        N    0.52691000  0.64203000  0.71518000  0.00000000
N        N    0.71518000  0.52691000  0.64203000  0.00000000
N        N    0.07315000  0.35797000  0.88488000  0.00000000
N        N    0.81173000  0.52691000  0.88488000  0.00000000
N        N    0.64203000  0.92685000  0.11512000  0.00000000
N        N    0.18827000  0.07315000  0.71518000  0.00000000
N        N    0.47309000  0.28482000  0.35797000  0.00000000
N        N    0.81173000  0.28482000  0.92685000  0.00000000
H        H    0.07437000  0.71261000  0.36802000  0.00000000
H        H    0.65541000  0.28739000  0.36176000  0.00000000
H        H    0.36176000  0.65541000  0.28739000  0.00000000
H        H    0.92563000  0.63198000  0.28739000  0.00000000
H        H    0.70635000  0.07437000  0.36176000  0.00000000
H        H    0.36802000  0.07437000  0.71261000  0.00000000
H        H    0.34459000  0.70635000  0.63198000  0.00000000
H        H    0.29365000  0.65541000  0.36802000  0.00000000
H        H    0.28739000  0.92563000  0.63198000  0.00000000
H        H    0.07437000  0.36176000  0.70635000  0.00000000
H        H    0.70635000  0.63198000  0.34459000  0.00000000
H        H    0.34459000  0.63824000  0.71261000  0.00000000
H        H    0.63824000  0.92563000  0.29365000  0.00000000
H        H    0.63198000  0.28739000  0.92563000  0.00000000
H        H    0.63824000  0.71261000  0.34459000  0.00000000
H        H    0.92563000  0.29365000  0.63824000  0.00000000
H        H    0.36802000  0.29365000  0.65541000  0.00000000
H        H    0.65541000  0.36802000  0.29365000  0.00000000
H        H    0.36176000  0.70635000  0.07437000  0.00000000
H        H    0.71261000  0.36802000  0.07437000  0.00000000
H        H    0.29365000  0.63824000  0.92563000  0.00000000
H        H    0.28739000  0.36176000  0.65541000  0.00000000
H        H    0.63198000  0.34459000  0.70635000  0.00000000
H        H    0.71261000  0.34459000  0.63824000  0.00000000
H        H    0.99612000  0.74290000  0.36438000  0.00000000
H        H    0.62148000  0.25710000  0.25322000  0.00000000
H        H    0.25322000  0.62148000  0.25710000  0.00000000
H        H    0.00388000  0.63562000  0.25710000  0.00000000
H        H    0.63174000  0.99612000  0.25322000  0.00000000
H        H    0.36438000  0.99612000  0.74290000  0.00000000
H        H    0.37852000  0.63174000  0.63562000  0.00000000
H        H    0.36826000  0.62148000  0.36438000  0.00000000
H        H    0.25710000  0.00388000  0.63562000  0.00000000
H        H    0.99612000  0.25322000  0.63174000  0.00000000
H        H    0.63174000  0.63562000  0.37852000  0.00000000
H        H    0.37852000  0.74678000  0.74290000  0.00000000
H        H    0.74678000  0.00388000  0.36826000  0.00000000
H        H    0.63562000  0.25710000  0.00388000  0.00000000
H        H    0.74678000  0.74290000  0.37852000  0.00000000
H        H    0.00388000  0.36826000  0.74678000  0.00000000
H        H    0.36438000  0.36826000  0.62148000  0.00000000
H        H    0.62148000  0.36438000  0.36826000  0.00000000
H        H    0.25322000  0.63174000  0.99612000  0.00000000
H        H    0.74290000  0.36438000  0.99612000  0.00000000
H        H    0.36826000  0.74678000  0.00388000  0.00000000
H        H    0.25710000  0.25322000  0.62148000  0.00000000
H        H    0.63562000  0.37852000  0.63174000  0.00000000
H        H    0.74290000  0.37852000  0.74678000  0.00000000
H        H    0.27567000  0.76918000  0.33475000  0.00000000
H        H    0.56557000  0.23082000  0.50649000  0.00000000
H        H    0.50649000  0.56557000  0.23082000  0.00000000
H        H    0.72433000  0.66525000  0.23082000  0.00000000
H        H    0.94092000  0.27567000  0.50649000  0.00000000
H        H    0.33475000  0.27567000  0.76918000  0.00000000
H        H    0.43443000  0.94092000  0.66525000  0.00000000
H        H    0.05908000  0.56557000  0.33475000  0.00000000
H        H    0.23082000  0.72433000  0.66525000  0.00000000
H        H    0.27567000  0.50649000  0.94092000  0.00000000
H        H    0.94092000  0.66525000  0.43443000  0.00000000
H        H    0.43443000  0.49351000  0.76918000  0.00000000
H        H    0.49351000  0.72433000  0.05908000  0.00000000
H        H    0.66525000  0.23082000  0.72433000  0.00000000
H        H    0.49351000  0.76918000  0.43443000  0.00000000
H        H    0.72433000  0.05908000  0.49351000  0.00000000
H        H    0.33475000  0.05908000  0.56557000  0.00000000
H        H    0.56557000  0.33475000  0.05908000  0.00000000
H        H    0.50649000  0.94092000  0.27567000  0.00000000
H        H    0.76918000  0.33475000  0.27567000  0.00000000
H        H    0.05908000  0.49351000  0.72433000  0.00000000
H        H    0.23082000  0.50649000  0.56557000  0.00000000
H        H    0.66525000  0.43443000  0.94092000  0.00000000
H        H    0.76918000  0.43443000  0.49351000  0.00000000
H        H    0.32813000  0.82164000  0.43041000  0.00000000
H        H    0.60877000  0.17836000  0.50649000  0.00000000
H        H    0.50649000  0.60877000  0.17836000  0.00000000
H        H    0.67187000  0.56959000  0.17836000  0.00000000
H        H    0.89772000  0.32813000  0.50649000  0.00000000
H        H    0.43041000  0.32813000  0.82164000  0.00000000
H        H    0.39123000  0.89772000  0.56959000  0.00000000
H        H    0.10228000  0.60877000  0.43041000  0.00000000
H        H    0.17836000  0.67187000  0.56959000  0.00000000
H        H    0.32813000  0.50649000  0.89772000  0.00000000
H        H    0.89772000  0.56959000  0.39123000  0.00000000
H        H    0.39123000  0.49351000  0.82164000  0.00000000
H        H    0.49351000  0.67187000  0.10228000  0.00000000
H        H    0.56959000  0.17836000  0.67187000  0.00000000
H        H    0.49351000  0.82164000  0.39123000  0.00000000
H        H    0.67187000  0.10228000  0.49351000  0.00000000
H        H    0.43041000  0.10228000  0.60877000  0.00000000
H        H    0.60877000  0.43041000  0.10228000  0.00000000
H        H    0.50649000  0.89772000  0.32813000  0.00000000
H        H    0.82164000  0.43041000  0.32813000  0.00000000
H        H    0.10228000  0.49351000  0.67187000  0.00000000
H        H    0.17836000  0.50649000  0.60877000  0.00000000
H        H    0.56959000  0.39123000  0.89772000  0.00000000
H        H    0.82164000  0.39123000  0.49351000  0.00000000
H        H    0.11805000  0.93290000  0.60013000  0.00000000
H        H    0.66723000  0.06710000  0.18515000  0.00000000
H        H    0.18515000  0.66723000  0.06710000  0.00000000
H        H    0.88195000  0.39987000  0.06710000  0.00000000
H        H    0.51792000  0.11805000  0.18515000  0.00000000
H        H    0.60013000  0.11805000  0.93290000  0.00000000
H        H    0.33277000  0.51792000  0.39987000  0.00000000
H        H    0.48208000  0.66723000  0.60013000  0.00000000
H        H    0.06710000  0.88195000  0.39987000  0.00000000
H        H    0.11805000  0.18515000  0.51792000  0.00000000
H        H    0.51792000  0.39987000  0.33277000  0.00000000
H        H    0.33277000  0.81485000  0.93290000  0.00000000
H        H    0.81485000  0.88195000  0.48208000  0.00000000
H        H    0.39987000  0.06710000  0.88195000  0.00000000
H        H    0.81485000  0.93290000  0.33277000  0.00000000
H        H    0.88195000  0.48208000  0.81485000  0.00000000
H        H    0.60013000  0.48208000  0.66723000  0.00000000
H        H    0.66723000  0.60013000  0.48208000  0.00000000
H        H    0.18515000  0.51792000  0.11805000  0.00000000
H        H    0.93290000  0.60013000  0.11805000  0.00000000
H        H    0.48208000  0.81485000  0.88195000  0.00000000
H        H    0.06710000  0.18515000  0.66723000  0.00000000
H        H    0.39987000  0.33277000  0.51792000  0.00000000
H        H    0.93290000  0.33277000  0.81485000  0.00000000
H        H    0.06264000  0.87749000  0.62149000  0.00000000
H        H    0.74400000  0.12251000  0.18515000  0.00000000
H        H    0.18515000  0.74400000  0.12251000  0.00000000
H        H    0.93736000  0.37851000  0.12251000  0.00000000
H        H    0.44115000  0.06264000  0.18515000  0.00000000
H        H    0.62149000  0.06264000  0.87749000  0.00000000
H        H    0.25600000  0.44115000  0.37851000  0.00000000
H        H    0.55885000  0.74400000  0.62149000  0.00000000
H        H    0.12251000  0.93736000  0.37851000  0.00000000
H        H    0.06264000  0.18515000  0.44115000  0.00000000
H        H    0.44115000  0.37851000  0.25600000  0.00000000
H        H    0.25600000  0.81485000  0.87749000  0.00000000
H        H    0.81485000  0.93736000  0.55885000  0.00000000
H        H    0.37851000  0.12251000  0.93736000  0.00000000
H        H    0.81485000  0.87749000  0.25600000  0.00000000
H        H    0.93736000  0.55885000  0.81485000  0.00000000
H        H    0.62149000  0.55885000  0.74400000  0.00000000
H        H    0.74400000  0.62149000  0.55885000  0.00000000
H        H    0.18515000  0.44115000  0.06264000  0.00000000
H        H    0.87749000  0.62149000  0.06264000  0.00000000
H        H    0.55885000  0.81485000  0.93736000  0.00000000
H        H    0.12251000  0.18515000  0.74400000  0.00000000
H        H    0.37851000  0.25600000  0.44115000  0.00000000
H        H    0.87749000  0.25600000  0.81485000  0.00000000
Zn       Zn   0.64639000  0.14639000  0.29278000  0.00000000
Zn       Zn   0.35361000  0.64639000  0.50000000  0.00000000
Zn       Zn   0.14639000  0.85361000  0.50000000  0.00000000
Zn       Zn   0.64639000  0.50000000  0.35361000  0.00000000
Zn       Zn   0.29278000  0.64639000  0.14639000  0.00000000
Zn       Zn   0.85361000  0.50000000  0.14639000  0.00000000
Zn       Zn   0.50000000  0.14639000  0.85361000  0.00000000
Zn       Zn   0.35361000  0.70722000  0.85361000  0.00000000
Zn       Zn   0.70722000  0.85361000  0.35361000  0.00000000
Zn       Zn   0.14639000  0.29278000  0.64639000  0.00000000
Zn       Zn   0.50000000  0.35361000  0.64639000  0.00000000
Zn       Zn   0.85361000  0.35361000  0.70722000  0.00000000
Zn       Zn   0.85170000  0.70340000  0.35170000  0.00000000
Zn       Zn   0.85170000  0.14830000  0.50000000  0.00000000
Zn       Zn   0.29660000  0.14830000  0.64830000  0.00000000
Zn       Zn   0.35170000  0.85170000  0.70340000  0.00000000
Zn       Zn   0.50000000  0.85170000  0.14830000  0.00000000
Zn       Zn   0.14830000  0.50000000  0.85170000  0.00000000
Zn       Zn   0.50000000  0.64830000  0.35170000  0.00000000
Zn       Zn   0.35170000  0.50000000  0.64830000  0.00000000
Zn       Zn   0.70340000  0.35170000  0.85170000  0.00000000
Zn       Zn   0.64830000  0.35170000  0.50000000  0.00000000
Zn       Zn   0.14830000  0.64830000  0.29660000  0.00000000
Zn       Zn   0.64830000  0.29660000  0.14830000  0.00000000
