data_ZIF-68

_cell_length_a  18.48820000
_cell_length_b  26.64070000
_cell_length_c  26.64070000
_cell_angle_alpha  120.00000000
_cell_angle_beta  90.00000000
_cell_angle_gamma  90.00000000


_symmetry_space_group_name_Hall ' P 1'
_symmetry_space_group_name_H-M  'P 1'
_symmetry_Int_Tables_number     1

loop_
_atom_site_label
_atom_site_type_symbol
_atom_site_fract_x
_atom_site_fract_y
_atom_site_fract_z
_atom_site_charge
Zn       Zn   0.08718000  0.66823000  0.56000000  0.00000000
Zn       Zn   0.58718000  0.56000000  0.89177000  0.00000000
Zn       Zn   0.41282000  0.66823000  0.10823000  0.00000000
Zn       Zn   0.91282000  0.10823000  0.66823000  0.00000000
Zn       Zn   0.41282000  0.89177000  0.56000000  0.00000000
Zn       Zn   0.91282000  0.10823000  0.44000000  0.00000000
Zn       Zn   0.58718000  0.56000000  0.66823000  0.00000000
Zn       Zn   0.41282000  0.89177000  0.33177000  0.00000000
Zn       Zn   0.41282000  0.66823000  0.56000000  0.00000000
Zn       Zn   0.58718000  0.33177000  0.89177000  0.00000000
Zn       Zn   0.41282000  0.44000000  0.10823000  0.00000000
Zn       Zn   0.58718000  0.33177000  0.44000000  0.00000000
Zn       Zn   0.58718000  0.10823000  0.66823000  0.00000000
Zn       Zn   0.08718000  0.89177000  0.56000000  0.00000000
Zn       Zn   0.58718000  0.10823000  0.44000000  0.00000000
Zn       Zn   0.91282000  0.56000000  0.66823000  0.00000000
Zn       Zn   0.08718000  0.44000000  0.10823000  0.00000000
Zn       Zn   0.08718000  0.66823000  0.10823000  0.00000000
Zn       Zn   0.08718000  0.44000000  0.33177000  0.00000000
Zn       Zn   0.91282000  0.33177000  0.44000000  0.00000000
Zn       Zn   0.41282000  0.44000000  0.33177000  0.00000000
Zn       Zn   0.91282000  0.33177000  0.89177000  0.00000000
Zn       Zn   0.91282000  0.56000000  0.89177000  0.00000000
Zn       Zn   0.08718000  0.89177000  0.33177000  0.00000000
N        N    0.04950000  0.74000000  0.56340000  0.00000000
N        N    0.54950000  0.56340000  0.82340000  0.00000000
N        N    0.45050000  0.74000000  0.17660000  0.00000000
N        N    0.95050000  0.17660000  0.74000000  0.00000000
N        N    0.45050000  0.82340000  0.56340000  0.00000000
N        N    0.95050000  0.17660000  0.43660000  0.00000000
N        N    0.54950000  0.56340000  0.74000000  0.00000000
N        N    0.45050000  0.82340000  0.26000000  0.00000000
N        N    0.45050000  0.74000000  0.56340000  0.00000000
N        N    0.54950000  0.26000000  0.82340000  0.00000000
N        N    0.45050000  0.43660000  0.17660000  0.00000000
N        N    0.54950000  0.26000000  0.43660000  0.00000000
N        N    0.54950000  0.17660000  0.74000000  0.00000000
N        N    0.04950000  0.82340000  0.56340000  0.00000000
N        N    0.54950000  0.17660000  0.43660000  0.00000000
N        N    0.95050000  0.56340000  0.74000000  0.00000000
N        N    0.04950000  0.43660000  0.17660000  0.00000000
N        N    0.04950000  0.74000000  0.17660000  0.00000000
N        N    0.04950000  0.43660000  0.26000000  0.00000000
N        N    0.95050000  0.26000000  0.43660000  0.00000000
N        N    0.45050000  0.43660000  0.26000000  0.00000000
N        N    0.95050000  0.26000000  0.82340000  0.00000000
N        N    0.95050000  0.56340000  0.82340000  0.00000000
N        N    0.04950000  0.82340000  0.26000000  0.00000000
C        C    0.58620000  0.56110000  0.78060000  0.00000000
C        C    0.41380000  0.78050000  0.21940000  0.00000000
C        C    0.41380000  0.78060000  0.56110000  0.00000000
C        C    0.58620000  0.21950000  0.78060000  0.00000000
C        C    0.08620000  0.78050000  0.56110000  0.00000000
C        C    0.58620000  0.21950000  0.43890000  0.00000000
C        C    0.08620000  0.43890000  0.21940000  0.00000000
C        C    0.91380000  0.21940000  0.43890000  0.00000000
C        C    0.41380000  0.43890000  0.21940000  0.00000000
C        C    0.91380000  0.21940000  0.78050000  0.00000000
C        C    0.91380000  0.56110000  0.78050000  0.00000000
C        C    0.08620000  0.78050000  0.21940000  0.00000000
H        H    0.63740000  0.55790000  0.77900000  0.00000000
H        H    0.36260000  0.77890000  0.22100000  0.00000000
H        H    0.36260000  0.77900000  0.55790000  0.00000000
H        H    0.63740000  0.22110000  0.77900000  0.00000000
H        H    0.13740000  0.77890000  0.55790000  0.00000000
H        H    0.63740000  0.22110000  0.44210000  0.00000000
H        H    0.13740000  0.44210000  0.22100000  0.00000000
H        H    0.86260000  0.22100000  0.44210000  0.00000000
H        H    0.36260000  0.44210000  0.22100000  0.00000000
H        H    0.86260000  0.22100000  0.77890000  0.00000000
H        H    0.86260000  0.55790000  0.77890000  0.00000000
H        H    0.13740000  0.77890000  0.22100000  0.00000000
C        C    0.98500000  0.75810000  0.56830000  0.00000000
C        C    0.48500000  0.56830000  0.81020000  0.00000000
C        C    0.51500000  0.75810000  0.18980000  0.00000000
C        C    0.01500000  0.18980000  0.75810000  0.00000000
C        C    0.51500000  0.81020000  0.56830000  0.00000000
C        C    0.01500000  0.18980000  0.43170000  0.00000000
C        C    0.48500000  0.56830000  0.75810000  0.00000000
C        C    0.51500000  0.81020000  0.24190000  0.00000000
C        C    0.51500000  0.75810000  0.56830000  0.00000000
C        C    0.48500000  0.24190000  0.81020000  0.00000000
C        C    0.51500000  0.43170000  0.18980000  0.00000000
C        C    0.48500000  0.24190000  0.43170000  0.00000000
C        C    0.48500000  0.18980000  0.75810000  0.00000000
C        C    0.98500000  0.81020000  0.56830000  0.00000000
C        C    0.48500000  0.18980000  0.43170000  0.00000000
C        C    0.01500000  0.56830000  0.75810000  0.00000000
C        C    0.98500000  0.43170000  0.18980000  0.00000000
C        C    0.98500000  0.75810000  0.18980000  0.00000000
C        C    0.98500000  0.43170000  0.24190000  0.00000000
C        C    0.01500000  0.24190000  0.43170000  0.00000000
C        C    0.51500000  0.43170000  0.24190000  0.00000000
C        C    0.01500000  0.24190000  0.81020000  0.00000000
C        C    0.01500000  0.56830000  0.81020000  0.00000000
C        C    0.98500000  0.81020000  0.24190000  0.00000000
C        C    0.92010000  0.73350000  0.57090000  0.00000000
C        C    0.42010000  0.57090000  0.83740000  0.00000000
C        C    0.57990000  0.73350000  0.16260000  0.00000000
C        C    0.07990000  0.16260000  0.73350000  0.00000000
C        C    0.57990000  0.83740000  0.57090000  0.00000000
C        C    0.07990000  0.16260000  0.42910000  0.00000000
C        C    0.42010000  0.57090000  0.73350000  0.00000000
C        C    0.57990000  0.83740000  0.26650000  0.00000000
C        C    0.57990000  0.73350000  0.57090000  0.00000000
C        C    0.42010000  0.26650000  0.83740000  0.00000000
C        C    0.57990000  0.42910000  0.16260000  0.00000000
C        C    0.42010000  0.26650000  0.42910000  0.00000000
C        C    0.42010000  0.16260000  0.73350000  0.00000000
C        C    0.92010000  0.83740000  0.57090000  0.00000000
C        C    0.42010000  0.16260000  0.42910000  0.00000000
C        C    0.07990000  0.57090000  0.73350000  0.00000000
C        C    0.92010000  0.42910000  0.16260000  0.00000000
C        C    0.92010000  0.73350000  0.16260000  0.00000000
C        C    0.92010000  0.42910000  0.26650000  0.00000000
C        C    0.07990000  0.26650000  0.42910000  0.00000000
C        C    0.57990000  0.42910000  0.26650000  0.00000000
C        C    0.07990000  0.26650000  0.83740000  0.00000000
C        C    0.07990000  0.57090000  0.83740000  0.00000000
C        C    0.92010000  0.83740000  0.26650000  0.00000000
H        H    0.92000000  0.69710000  0.56950000  0.00000000
H        H    0.42000000  0.56950000  0.87240000  0.00000000
H        H    0.58000000  0.69710000  0.12760000  0.00000000
H        H    0.08000000  0.12760000  0.69710000  0.00000000
H        H    0.58000000  0.87240000  0.56950000  0.00000000
H        H    0.08000000  0.12760000  0.43050000  0.00000000
H        H    0.42000000  0.56950000  0.69710000  0.00000000
H        H    0.58000000  0.87240000  0.30290000  0.00000000
H        H    0.58000000  0.69710000  0.56950000  0.00000000
H        H    0.42000000  0.30290000  0.87240000  0.00000000
H        H    0.58000000  0.43050000  0.12760000  0.00000000
H        H    0.42000000  0.30290000  0.43050000  0.00000000
H        H    0.42000000  0.12760000  0.69710000  0.00000000
H        H    0.92000000  0.87240000  0.56950000  0.00000000
H        H    0.42000000  0.12760000  0.43050000  0.00000000
H        H    0.08000000  0.56950000  0.69710000  0.00000000
H        H    0.92000000  0.43050000  0.12760000  0.00000000
H        H    0.92000000  0.69710000  0.12760000  0.00000000
H        H    0.92000000  0.43050000  0.30290000  0.00000000
H        H    0.08000000  0.30290000  0.43050000  0.00000000
H        H    0.58000000  0.43050000  0.30290000  0.00000000
H        H    0.08000000  0.30290000  0.87240000  0.00000000
H        H    0.08000000  0.56950000  0.87240000  0.00000000
H        H    0.92000000  0.87240000  0.30290000  0.00000000
C        C    0.85550000  0.76170000  0.57540000  0.00000000
C        C    0.35550000  0.57540000  0.81370000  0.00000000
C        C    0.64450000  0.76170000  0.18630000  0.00000000
C        C    0.14450000  0.18630000  0.76170000  0.00000000
C        C    0.64450000  0.81370000  0.57540000  0.00000000
C        C    0.14450000  0.18630000  0.42460000  0.00000000
C        C    0.35550000  0.57540000  0.76170000  0.00000000
C        C    0.64450000  0.81370000  0.23830000  0.00000000
C        C    0.64450000  0.76170000  0.57540000  0.00000000
C        C    0.35550000  0.23830000  0.81370000  0.00000000
C        C    0.64450000  0.42460000  0.18630000  0.00000000
C        C    0.35550000  0.23830000  0.42460000  0.00000000
C        C    0.35550000  0.18630000  0.76170000  0.00000000
C        C    0.85550000  0.81370000  0.57540000  0.00000000
C        C    0.35550000  0.18630000  0.42460000  0.00000000
C        C    0.14450000  0.57540000  0.76170000  0.00000000
C        C    0.85550000  0.42460000  0.18630000  0.00000000
C        C    0.85550000  0.76170000  0.18630000  0.00000000
C        C    0.85550000  0.42460000  0.23830000  0.00000000
C        C    0.14450000  0.23830000  0.42460000  0.00000000
C        C    0.64450000  0.42460000  0.23830000  0.00000000
C        C    0.14450000  0.23830000  0.81370000  0.00000000
C        C    0.14450000  0.57540000  0.81370000  0.00000000
C        C    0.85550000  0.81370000  0.23830000  0.00000000
H        H    0.81120000  0.74550000  0.57860000  0.00000000
H        H    0.31120000  0.57860000  0.83310000  0.00000000
H        H    0.68880000  0.74550000  0.16690000  0.00000000
H        H    0.18880000  0.16690000  0.74550000  0.00000000
H        H    0.68880000  0.83310000  0.57860000  0.00000000
H        H    0.18880000  0.16690000  0.42140000  0.00000000
H        H    0.31120000  0.57860000  0.74550000  0.00000000
H        H    0.68880000  0.83310000  0.25450000  0.00000000
H        H    0.68880000  0.74550000  0.57860000  0.00000000
H        H    0.31120000  0.25450000  0.83310000  0.00000000
H        H    0.68880000  0.42140000  0.16690000  0.00000000
H        H    0.31120000  0.25450000  0.42140000  0.00000000
H        H    0.31120000  0.16690000  0.74550000  0.00000000
H        H    0.81120000  0.83310000  0.57860000  0.00000000
H        H    0.31120000  0.16690000  0.42140000  0.00000000
H        H    0.18880000  0.57860000  0.74550000  0.00000000
H        H    0.81120000  0.42140000  0.16690000  0.00000000
H        H    0.81120000  0.74550000  0.16690000  0.00000000
H        H    0.81120000  0.42140000  0.25450000  0.00000000
H        H    0.18880000  0.25450000  0.42140000  0.00000000
H        H    0.68880000  0.42140000  0.25450000  0.00000000
H        H    0.18880000  0.25450000  0.83310000  0.00000000
H        H    0.18880000  0.57860000  0.83310000  0.00000000
H        H    0.81120000  0.83310000  0.25450000  0.00000000
N        N    0.05290000  0.60480000  0.48340000  0.00000000
N        N    0.55290000  0.48340000  0.87860000  0.00000000
N        N    0.44710000  0.60480000  0.12140000  0.00000000
N        N    0.94710000  0.12140000  0.60480000  0.00000000
N        N    0.44710000  0.87860000  0.48340000  0.00000000
N        N    0.94710000  0.12140000  0.51660000  0.00000000
N        N    0.55290000  0.48340000  0.60480000  0.00000000
N        N    0.44710000  0.87860000  0.39520000  0.00000000
N        N    0.44710000  0.60480000  0.48340000  0.00000000
N        N    0.55290000  0.39520000  0.87860000  0.00000000
N        N    0.44710000  0.51660000  0.12140000  0.00000000
N        N    0.55290000  0.39520000  0.51660000  0.00000000
N        N    0.55290000  0.12140000  0.60480000  0.00000000
N        N    0.05290000  0.87860000  0.48340000  0.00000000
N        N    0.55290000  0.12140000  0.51660000  0.00000000
N        N    0.94710000  0.48340000  0.60480000  0.00000000
N        N    0.05290000  0.51660000  0.12140000  0.00000000
N        N    0.05290000  0.60480000  0.12140000  0.00000000
N        N    0.05290000  0.51660000  0.39520000  0.00000000
N        N    0.94710000  0.39520000  0.51660000  0.00000000
N        N    0.44710000  0.51660000  0.39520000  0.00000000
N        N    0.94710000  0.39520000  0.87860000  0.00000000
N        N    0.94710000  0.48340000  0.87860000  0.00000000
N        N    0.05290000  0.87860000  0.39520000  0.00000000
C        C    0.01800000  0.61010000  0.44680000  0.00000000
C        C    0.51800000  0.44680000  0.83670000  0.00000000
C        C    0.48200000  0.61010000  0.16330000  0.00000000
C        C    0.98200000  0.16330000  0.61010000  0.00000000
C        C    0.48200000  0.83670000  0.44680000  0.00000000
C        C    0.98200000  0.16330000  0.55320000  0.00000000
C        C    0.51800000  0.44680000  0.61010000  0.00000000
C        C    0.48200000  0.83670000  0.38990000  0.00000000
C        C    0.48200000  0.61010000  0.44680000  0.00000000
C        C    0.51800000  0.38990000  0.83670000  0.00000000
C        C    0.48200000  0.55320000  0.16330000  0.00000000
C        C    0.51800000  0.38990000  0.55320000  0.00000000
C        C    0.51800000  0.16330000  0.61010000  0.00000000
C        C    0.01800000  0.83670000  0.44680000  0.00000000
C        C    0.51800000  0.16330000  0.55320000  0.00000000
C        C    0.98200000  0.44680000  0.61010000  0.00000000
C        C    0.01800000  0.55320000  0.16330000  0.00000000
C        C    0.01800000  0.61010000  0.16330000  0.00000000
C        C    0.01800000  0.55320000  0.38990000  0.00000000
C        C    0.98200000  0.38990000  0.55320000  0.00000000
C        C    0.48200000  0.55320000  0.38990000  0.00000000
C        C    0.98200000  0.38990000  0.83670000  0.00000000
C        C    0.98200000  0.44680000  0.83670000  0.00000000
C        C    0.01800000  0.83670000  0.38990000  0.00000000
H        H    0.99470000  0.64460000  0.45330000  0.00000000
H        H    0.49470000  0.45330000  0.80870000  0.00000000
H        H    0.50530000  0.64460000  0.19130000  0.00000000
H        H    0.00530000  0.19130000  0.64460000  0.00000000
H        H    0.50530000  0.80870000  0.45330000  0.00000000
H        H    0.00530000  0.19130000  0.54670000  0.00000000
H        H    0.49470000  0.45330000  0.64460000  0.00000000
H        H    0.50530000  0.80870000  0.35540000  0.00000000
H        H    0.50530000  0.64460000  0.45330000  0.00000000
H        H    0.49470000  0.35540000  0.80870000  0.00000000
H        H    0.50530000  0.54670000  0.19130000  0.00000000
H        H    0.49470000  0.35540000  0.54670000  0.00000000
H        H    0.49470000  0.19130000  0.64460000  0.00000000
H        H    0.99470000  0.80870000  0.45330000  0.00000000
H        H    0.49470000  0.19130000  0.54670000  0.00000000
H        H    0.00530000  0.45330000  0.64460000  0.00000000
H        H    0.99470000  0.54670000  0.19130000  0.00000000
H        H    0.99470000  0.64460000  0.19130000  0.00000000
H        H    0.99470000  0.54670000  0.35540000  0.00000000
H        H    0.00530000  0.35540000  0.54670000  0.00000000
H        H    0.50530000  0.54670000  0.35540000  0.00000000
H        H    0.00530000  0.35540000  0.80870000  0.00000000
H        H    0.00530000  0.45330000  0.80870000  0.00000000
H        H    0.99470000  0.80870000  0.35540000  0.00000000
C        C    0.92230000  0.09540000  0.54770000  0.00000000
C        C    0.42230000  0.90460000  0.45230000  0.00000000
C        C    0.57770000  0.45230000  0.90460000  0.00000000
C        C    0.42230000  0.54770000  0.09540000  0.00000000
C        C    0.57770000  0.45230000  0.54770000  0.00000000
C        C    0.57770000  0.09540000  0.54770000  0.00000000
C        C    0.07770000  0.54770000  0.09540000  0.00000000
C        C    0.07770000  0.54770000  0.45230000  0.00000000
C        C    0.92230000  0.45230000  0.54770000  0.00000000
C        C    0.42230000  0.54770000  0.45230000  0.00000000
C        C    0.92230000  0.45230000  0.90460000  0.00000000
C        C    0.07770000  0.90460000  0.45230000  0.00000000
N        N    0.88640000  0.05030000  0.52520000  0.00000000
N        N    0.38640000  0.94970000  0.47490000  0.00000000
N        N    0.61360000  0.47490000  0.94970000  0.00000000
N        N    0.38640000  0.52520000  0.05030000  0.00000000
N        N    0.61360000  0.47490000  0.52520000  0.00000000
N        N    0.61360000  0.05030000  0.52520000  0.00000000
N        N    0.11360000  0.52510000  0.05030000  0.00000000
N        N    0.11360000  0.52520000  0.47490000  0.00000000
N        N    0.88640000  0.47490000  0.52520000  0.00000000
N        N    0.38640000  0.52520000  0.47490000  0.00000000
N        N    0.88640000  0.47480000  0.94970000  0.00000000
N        N    0.11360000  0.94970000  0.47490000  0.00000000
O        O    0.12450000  0.55510000  0.52830000  0.00000000
O        O    0.62450000  0.52830000  0.97320000  0.00000000
O        O    0.37550000  0.55510000  0.02680000  0.00000000
O        O    0.87550000  0.02680000  0.55510000  0.00000000
O        O    0.37550000  0.97320000  0.52830000  0.00000000
O        O    0.87550000  0.02680000  0.47170000  0.00000000
O        O    0.62450000  0.52830000  0.55510000  0.00000000
O        O    0.37550000  0.97320000  0.44490000  0.00000000
O        O    0.37550000  0.55510000  0.52830000  0.00000000
O        O    0.62450000  0.44490000  0.97320000  0.00000000
O        O    0.37550000  0.47170000  0.02680000  0.00000000
O        O    0.62450000  0.44490000  0.47170000  0.00000000
O        O    0.62450000  0.02680000  0.55510000  0.00000000
O        O    0.12450000  0.97320000  0.52830000  0.00000000
O        O    0.62450000  0.02680000  0.47170000  0.00000000
O        O    0.87550000  0.52830000  0.55510000  0.00000000
O        O    0.12450000  0.47170000  0.02680000  0.00000000
O        O    0.12450000  0.55510000  0.02680000  0.00000000
O        O    0.12450000  0.47170000  0.44490000  0.00000000
O        O    0.87550000  0.44490000  0.47170000  0.00000000
O        O    0.37550000  0.47170000  0.44490000  0.00000000
O        O    0.87550000  0.44490000  0.97320000  0.00000000
O        O    0.87550000  0.52830000  0.97320000  0.00000000
O        O    0.12450000  0.97320000  0.44490000  0.00000000
N        N    0.03400000  0.66210000  0.61840000  0.00000000
N        N    0.53400000  0.61840000  0.95630000  0.00000000
N        N    0.46600000  0.66210000  0.04370000  0.00000000
N        N    0.96600000  0.04370000  0.66210000  0.00000000
N        N    0.46600000  0.95630000  0.61840000  0.00000000
N        N    0.96600000  0.04370000  0.38160000  0.00000000
N        N    0.53400000  0.61840000  0.66210000  0.00000000
N        N    0.46600000  0.95630000  0.33790000  0.00000000
N        N    0.46600000  0.66210000  0.61840000  0.00000000
N        N    0.53400000  0.33790000  0.95630000  0.00000000
N        N    0.46600000  0.38160000  0.04370000  0.00000000
N        N    0.53400000  0.33790000  0.38160000  0.00000000
N        N    0.53400000  0.04370000  0.66210000  0.00000000
N        N    0.03400000  0.95630000  0.61840000  0.00000000
N        N    0.53400000  0.04370000  0.38160000  0.00000000
N        N    0.96600000  0.61840000  0.66210000  0.00000000
N        N    0.03400000  0.38160000  0.04370000  0.00000000
N        N    0.03400000  0.66210000  0.04370000  0.00000000
N        N    0.03400000  0.38160000  0.33790000  0.00000000
N        N    0.96600000  0.33790000  0.38160000  0.00000000
N        N    0.46600000  0.38160000  0.33790000  0.00000000
N        N    0.96600000  0.33790000  0.95630000  0.00000000
N        N    0.96600000  0.61840000  0.95630000  0.00000000
N        N    0.03400000  0.95630000  0.33790000  0.00000000
C        C    0.50000000  0.61610000  0.00000000  0.00000000
C        C    0.50000000  0.61610000  0.61610000  0.00000000
C        C    0.50000000  0.38390000  0.00000000  0.00000000
C        C    0.50000000  1.00000000  0.61610000  0.00000000
C        C    0.00000000  0.00000000  0.61610000  0.00000000
C        C    0.50000000  1.00000000  0.38390000  0.00000000
C        C    0.00000000  0.61610000  0.61610000  0.00000000
C        C    0.00000000  0.38390000  0.38390000  0.00000000
C        C    0.50000000  0.38390000  0.38390000  0.00000000
C        C    0.00000000  0.38390000  0.00000000  0.00000000
C        C    0.00000000  0.61610000  0.00000000  0.00000000
C        C    0.00000000  0.00000000  0.38390000  0.00000000
H        H    0.50000000  0.58040000  0.00000000  0.00000000
H        H    0.50000000  0.58040000  0.58040000  0.00000000
H        H    0.50000000  0.41960000  0.00000000  0.00000000
H        H    0.50000000  1.00000000  0.58040000  0.00000000
H        H    0.00000000  0.00000000  0.58040000  0.00000000
H        H    0.50000000  1.00000000  0.41960000  0.00000000
H        H    0.00000000  0.58040000  0.58040000  0.00000000
H        H    0.00000000  0.41960000  0.41960000  0.00000000
H        H    0.50000000  0.41960000  0.41960000  0.00000000
H        H    0.00000000  0.41960000  0.00000000  0.00000000
H        H    0.00000000  0.58040000  0.00000000  0.00000000
H        H    0.00000000  0.00000000  0.41960000  0.00000000
C        C    0.02100000  0.70460000  0.67750000  0.00000000
C        C    0.52100000  0.67750000  0.97290000  0.00000000
C        C    0.47900000  0.70460000  0.02710000  0.00000000
C        C    0.97900000  0.02710000  0.70460000  0.00000000
C        C    0.47900000  0.97290000  0.67750000  0.00000000
C        C    0.97900000  0.02710000  0.32250000  0.00000000
C        C    0.52100000  0.67750000  0.70460000  0.00000000
C        C    0.47900000  0.97290000  0.29540000  0.00000000
C        C    0.47900000  0.70460000  0.67750000  0.00000000
C        C    0.52100000  0.29540000  0.97290000  0.00000000
C        C    0.47900000  0.32250000  0.02710000  0.00000000
C        C    0.52100000  0.29540000  0.32250000  0.00000000
C        C    0.52100000  0.02710000  0.70460000  0.00000000
C        C    0.02100000  0.97290000  0.67750000  0.00000000
C        C    0.52100000  0.02710000  0.32250000  0.00000000
C        C    0.97900000  0.67750000  0.70460000  0.00000000
C        C    0.02100000  0.32250000  0.02710000  0.00000000
C        C    0.02100000  0.70460000  0.02710000  0.00000000
C        C    0.02100000  0.32250000  0.29540000  0.00000000
C        C    0.97900000  0.29540000  0.32250000  0.00000000
C        C    0.47900000  0.32250000  0.29540000  0.00000000
C        C    0.97900000  0.29540000  0.97290000  0.00000000
C        C    0.97900000  0.67750000  0.97290000  0.00000000
C        C    0.02100000  0.97290000  0.29540000  0.00000000
C        C    0.04300000  0.76360000  0.70950000  0.00000000
C        C    0.54300000  0.70950000  0.94590000  0.00000000
C        C    0.45700000  0.76360000  0.05410000  0.00000000
C        C    0.95700000  0.05410000  0.76360000  0.00000000
C        C    0.45700000  0.94590000  0.70950000  0.00000000
C        C    0.95700000  0.05410000  0.29050000  0.00000000
C        C    0.54300000  0.70950000  0.76360000  0.00000000
C        C    0.45700000  0.94590000  0.23640000  0.00000000
C        C    0.45700000  0.76360000  0.70950000  0.00000000
C        C    0.54300000  0.23640000  0.94590000  0.00000000
C        C    0.45700000  0.29050000  0.05410000  0.00000000
C        C    0.54300000  0.23640000  0.29050000  0.00000000
C        C    0.54300000  0.05410000  0.76360000  0.00000000
C        C    0.04300000  0.94590000  0.70950000  0.00000000
C        C    0.54300000  0.05410000  0.29050000  0.00000000
C        C    0.95700000  0.70950000  0.76360000  0.00000000
C        C    0.04300000  0.29050000  0.05410000  0.00000000
C        C    0.04300000  0.76360000  0.05410000  0.00000000
C        C    0.04300000  0.29050000  0.23640000  0.00000000
C        C    0.95700000  0.23640000  0.29050000  0.00000000
C        C    0.45700000  0.29050000  0.23640000  0.00000000
C        C    0.95700000  0.23640000  0.94590000  0.00000000
C        C    0.95700000  0.70950000  0.94590000  0.00000000
C        C    0.04300000  0.94590000  0.23640000  0.00000000
H        H    0.07170000  0.78100000  0.69270000  0.00000000
H        H    0.57170000  0.69270000  0.91170000  0.00000000
H        H    0.42830000  0.78100000  0.08830000  0.00000000
H        H    0.92830000  0.08830000  0.78100000  0.00000000
H        H    0.42830000  0.91170000  0.69270000  0.00000000
H        H    0.92830000  0.08830000  0.30730000  0.00000000
H        H    0.57170000  0.69270000  0.78100000  0.00000000
H        H    0.42830000  0.91170000  0.21900000  0.00000000
H        H    0.42830000  0.78100000  0.69270000  0.00000000
H        H    0.57170000  0.21900000  0.91170000  0.00000000
H        H    0.42830000  0.30730000  0.08830000  0.00000000
H        H    0.57170000  0.21900000  0.30730000  0.00000000
H        H    0.57170000  0.08830000  0.78100000  0.00000000
H        H    0.07170000  0.91170000  0.69270000  0.00000000
H        H    0.57170000  0.08830000  0.30730000  0.00000000
H        H    0.92830000  0.69270000  0.78100000  0.00000000
H        H    0.07170000  0.30730000  0.08830000  0.00000000
H        H    0.07170000  0.78100000  0.08830000  0.00000000
H        H    0.07170000  0.30730000  0.21900000  0.00000000
H        H    0.92830000  0.21900000  0.30730000  0.00000000
H        H    0.42830000  0.30730000  0.21900000  0.00000000
H        H    0.92830000  0.21900000  0.91170000  0.00000000
H        H    0.92830000  0.69270000  0.91170000  0.00000000
H        H    0.07170000  0.91170000  0.21900000  0.00000000
C        C    0.02010000  0.79470000  0.76740000  0.00000000
C        C    0.52010000  0.76740000  0.97270000  0.00000000
C        C    0.47990000  0.79470000  0.02730000  0.00000000
C        C    0.97990000  0.02730000  0.79470000  0.00000000
C        C    0.47990000  0.97270000  0.76740000  0.00000000
C        C    0.97990000  0.02730000  0.23260000  0.00000000
C        C    0.52010000  0.76740000  0.79470000  0.00000000
C        C    0.47990000  0.97270000  0.20530000  0.00000000
C        C    0.47990000  0.79470000  0.76740000  0.00000000
C        C    0.52010000  0.20530000  0.97270000  0.00000000
C        C    0.47990000  0.23260000  0.02730000  0.00000000
C        C    0.52010000  0.20530000  0.23260000  0.00000000
C        C    0.52010000  0.02730000  0.79470000  0.00000000
C        C    0.02010000  0.97270000  0.76740000  0.00000000
C        C    0.52010000  0.02730000  0.23260000  0.00000000
C        C    0.97990000  0.76740000  0.79470000  0.00000000
C        C    0.02010000  0.23260000  0.02730000  0.00000000
C        C    0.02010000  0.79470000  0.02730000  0.00000000
C        C    0.02010000  0.23260000  0.20530000  0.00000000
C        C    0.97990000  0.20530000  0.23260000  0.00000000
C        C    0.47990000  0.23260000  0.20530000  0.00000000
C        C    0.97990000  0.20530000  0.97270000  0.00000000
C        C    0.97990000  0.76740000  0.97270000  0.00000000
C        C    0.02010000  0.97270000  0.20530000  0.00000000
H        H    0.03100000  0.83490000  0.78960000  0.00000000
H        H    0.53100000  0.78960000  0.95470000  0.00000000
H        H    0.46900000  0.83490000  0.04530000  0.00000000
H        H    0.96900000  0.04530000  0.83490000  0.00000000
H        H    0.46900000  0.95470000  0.78960000  0.00000000
H        H    0.96900000  0.04530000  0.21040000  0.00000000
H        H    0.53100000  0.78960000  0.83490000  0.00000000
H        H    0.46900000  0.95470000  0.16510000  0.00000000
H        H    0.46900000  0.83490000  0.78960000  0.00000000
H        H    0.53100000  0.16510000  0.95470000  0.00000000
H        H    0.46900000  0.21040000  0.04530000  0.00000000
H        H    0.53100000  0.16510000  0.21040000  0.00000000
H        H    0.53100000  0.04530000  0.83490000  0.00000000
H        H    0.03100000  0.95470000  0.78960000  0.00000000
H        H    0.53100000  0.04530000  0.21040000  0.00000000
H        H    0.96900000  0.78960000  0.83490000  0.00000000
H        H    0.03100000  0.21040000  0.04530000  0.00000000
H        H    0.03100000  0.83490000  0.04530000  0.00000000
H        H    0.03100000  0.21040000  0.16510000  0.00000000
H        H    0.96900000  0.16510000  0.21040000  0.00000000
H        H    0.46900000  0.21040000  0.16510000  0.00000000
H        H    0.96900000  0.16510000  0.95470000  0.00000000
H        H    0.96900000  0.78960000  0.95470000  0.00000000
H        H    0.03100000  0.95470000  0.16510000  0.00000000
N        N    0.19520000  0.68080000  0.58500000  0.00000000
N        N    0.69520000  0.58500000  0.90420000  0.00000000
N        N    0.30480000  0.68080000  0.09580000  0.00000000
N        N    0.80480000  0.09580000  0.68080000  0.00000000
N        N    0.30480000  0.90420000  0.58500000  0.00000000
N        N    0.80480000  0.09580000  0.41500000  0.00000000
N        N    0.69520000  0.58500000  0.68080000  0.00000000
N        N    0.30480000  0.90420000  0.31920000  0.00000000
N        N    0.30480000  0.68080000  0.58500000  0.00000000
N        N    0.69520000  0.31920000  0.90420000  0.00000000
N        N    0.30480000  0.41500000  0.09580000  0.00000000
N        N    0.69520000  0.31920000  0.41500000  0.00000000
N        N    0.69520000  0.09580000  0.68080000  0.00000000
N        N    0.19520000  0.90420000  0.58500000  0.00000000
N        N    0.69520000  0.09580000  0.41500000  0.00000000
N        N    0.80480000  0.58500000  0.68080000  0.00000000
N        N    0.19520000  0.41500000  0.09580000  0.00000000
N        N    0.19520000  0.68080000  0.09580000  0.00000000
N        N    0.19520000  0.41500000  0.31920000  0.00000000
N        N    0.80480000  0.31920000  0.41500000  0.00000000
N        N    0.30480000  0.41500000  0.31920000  0.00000000
N        N    0.80480000  0.31920000  0.90420000  0.00000000
N        N    0.80480000  0.58500000  0.90420000  0.00000000
N        N    0.19520000  0.90420000  0.31920000  0.00000000
C        C    0.21960000  0.68390000  0.63830000  0.00000000
C        C    0.71960000  0.63830000  0.95440000  0.00000000
C        C    0.28040000  0.68390000  0.04560000  0.00000000
C        C    0.78040000  0.04560000  0.68390000  0.00000000
C        C    0.28040000  0.95440000  0.63830000  0.00000000
C        C    0.78040000  0.04560000  0.36170000  0.00000000
C        C    0.71960000  0.63830000  0.68390000  0.00000000
C        C    0.28040000  0.95440000  0.31610000  0.00000000
C        C    0.28040000  0.68390000  0.63830000  0.00000000
C        C    0.71960000  0.31610000  0.95440000  0.00000000
C        C    0.28040000  0.36170000  0.04560000  0.00000000
C        C    0.71960000  0.31610000  0.36170000  0.00000000
C        C    0.71960000  0.04560000  0.68390000  0.00000000
C        C    0.21960000  0.95440000  0.63830000  0.00000000
C        C    0.71960000  0.04560000  0.36170000  0.00000000
C        C    0.78040000  0.63830000  0.68390000  0.00000000
C        C    0.21960000  0.36170000  0.04560000  0.00000000
C        C    0.21960000  0.68390000  0.04560000  0.00000000
C        C    0.21960000  0.36170000  0.31610000  0.00000000
C        C    0.78040000  0.31610000  0.36170000  0.00000000
C        C    0.28040000  0.36170000  0.31610000  0.00000000
C        C    0.78040000  0.31610000  0.95440000  0.00000000
C        C    0.78040000  0.63830000  0.95440000  0.00000000
C        C    0.21960000  0.95440000  0.31610000  0.00000000
H        H    0.18950000  0.68560000  0.66800000  0.00000000
H        H    0.68950000  0.66800000  0.98240000  0.00000000
H        H    0.31050000  0.68560000  0.01760000  0.00000000
H        H    0.81050000  0.01760000  0.68560000  0.00000000
H        H    0.31050000  0.98240000  0.66800000  0.00000000
H        H    0.81050000  0.01760000  0.33200000  0.00000000
H        H    0.68950000  0.66800000  0.68560000  0.00000000
H        H    0.31050000  0.98240000  0.31440000  0.00000000
H        H    0.31050000  0.68560000  0.66800000  0.00000000
H        H    0.68950000  0.31440000  0.98240000  0.00000000
H        H    0.31050000  0.33200000  0.01760000  0.00000000
H        H    0.68950000  0.31440000  0.33200000  0.00000000
H        H    0.68950000  0.01760000  0.68560000  0.00000000
H        H    0.18950000  0.98240000  0.66800000  0.00000000
H        H    0.68950000  0.01760000  0.33200000  0.00000000
H        H    0.81050000  0.66800000  0.68560000  0.00000000
H        H    0.18950000  0.33200000  0.01760000  0.00000000
H        H    0.18950000  0.68560000  0.01760000  0.00000000
H        H    0.18950000  0.33200000  0.31440000  0.00000000
H        H    0.81050000  0.31440000  0.33200000  0.00000000
H        H    0.31050000  0.33200000  0.31440000  0.00000000
H        H    0.81050000  0.31440000  0.98240000  0.00000000
H        H    0.81050000  0.66800000  0.98240000  0.00000000
H        H    0.18950000  0.98240000  0.31440000  0.00000000
C        C    0.25000000  0.67830000  0.55220000  0.00000000
C        C    0.75000000  0.12610000  0.67830000  0.00000000
C        C    0.25000000  0.87390000  0.55220000  0.00000000
C        C    0.75000000  0.12610000  0.44780000  0.00000000
C        C    0.75000000  0.55220000  0.67830000  0.00000000
C        C    0.25000000  0.44780000  0.12610000  0.00000000
C        C    0.25000000  0.67830000  0.12610000  0.00000000
C        C    0.75000000  0.32170000  0.44780000  0.00000000
C        C    0.25000000  0.44780000  0.32170000  0.00000000
C        C    0.75000000  0.32170000  0.87390000  0.00000000
C        C    0.75000000  0.55220000  0.87390000  0.00000000
C        C    0.25000000  0.87390000  0.32170000  0.00000000
N        N    0.25000000  0.67510000  0.50400000  0.00000000
N        N    0.75000000  0.17110000  0.67510000  0.00000000
N        N    0.25000000  0.82890000  0.50400000  0.00000000
N        N    0.75000000  0.17110000  0.49600000  0.00000000
N        N    0.75000000  0.50400000  0.67510000  0.00000000
N        N    0.25000000  0.49600000  0.17110000  0.00000000
N        N    0.25000000  0.67510000  0.17110000  0.00000000
N        N    0.75000000  0.32490000  0.49600000  0.00000000
N        N    0.25000000  0.49600000  0.32490000  0.00000000
N        N    0.75000000  0.32490000  0.82890000  0.00000000
N        N    0.75000000  0.50400000  0.82890000  0.00000000
N        N    0.25000000  0.82890000  0.32490000  0.00000000
O        O    0.19420000  0.67210000  0.48420000  0.00000000
O        O    0.69420000  0.48420000  0.81210000  0.00000000
O        O    0.30580000  0.67210000  0.18790000  0.00000000
O        O    0.80580000  0.18790000  0.67210000  0.00000000
O        O    0.30580000  0.81210000  0.48420000  0.00000000
O        O    0.80580000  0.18790000  0.51580000  0.00000000
O        O    0.69420000  0.48420000  0.67210000  0.00000000
O        O    0.30580000  0.81210000  0.32790000  0.00000000
O        O    0.30580000  0.67210000  0.48420000  0.00000000
O        O    0.69420000  0.32790000  0.81210000  0.00000000
O        O    0.30580000  0.51580000  0.18790000  0.00000000
O        O    0.69420000  0.32790000  0.51580000  0.00000000
O        O    0.69420000  0.18790000  0.67210000  0.00000000
O        O    0.19420000  0.81210000  0.48420000  0.00000000
O        O    0.69420000  0.18790000  0.51580000  0.00000000
O        O    0.80580000  0.48420000  0.67210000  0.00000000
O        O    0.19420000  0.51580000  0.18790000  0.00000000
O        O    0.19420000  0.67210000  0.18790000  0.00000000
O        O    0.19420000  0.51580000  0.32790000  0.00000000
O        O    0.80580000  0.32790000  0.51580000  0.00000000
O        O    0.30580000  0.51580000  0.32790000  0.00000000
O        O    0.80580000  0.32790000  0.81210000  0.00000000
O        O    0.80580000  0.48420000  0.81210000  0.00000000
O        O    0.19420000  0.81210000  0.32790000  0.00000000
